Program Version,EnergyPlus, Version 23.2.0-7636e6b3e9, YMD=2024.04.10 11:15
! <Version>, Version ID
 Version, 23.2
! <Timesteps per Hour>, #TimeSteps, Minutes per TimeStep {minutes}
 Timesteps per Hour,  4, 15
! <System Convergence Limits>, Minimum System TimeStep {minutes}, Max HVAC Iterations, Minimum Plant Iterations, Maximum Plant Iterations
 System Convergence Limits, 15, 5, 2, 8
! <Simulation Control>, Do Zone Sizing, Do System Sizing, Do Plant Sizing, Do Design Days, Do Weather Simulation, Do HVAC Sizing Simulation
 Simulation Control, Yes, Yes, Yes, Yes, No, No
! <Performance Precision Tradeoffs>, Use Coil Direct Simulation, Zone Radiant Exchange Algorithm, Override Mode, Number of Timestep In Hour, Force Euler Method, Minimum Number of Warmup Days, Force Suppress All Begin Environment Resets, Minimum System Timestep, MaxZoneTempDiff, MaxAllowedDelTemp
 Performance Precision Tradeoffs, No, ScriptF, Normal, 4, No, 1, No, 15.0, 0.300, 2.0000E-003
! <Output Reporting Tolerances>, Tolerance for Time Heating Setpoint Not Met, Tolerance for Zone Cooling Setpoint Not Met Time
 Output Reporting Tolerances, 0.556, 0.556, 
! <Site:GroundTemperature:BuildingSurface>,Jan{C},Feb{C},Mar{C},Apr{C},May{C},Jun{C},Jul{C},Aug{C},Sep{C},Oct{C},Nov{C},Dec{C}
 Site:GroundTemperature:BuildingSurface,  18.00,  18.00,  18.00,  18.00,  18.00,  18.00,  18.00,  18.00,  18.00,  18.00,  18.00,  18.00
! <Site:GroundTemperature:FCfactorMethod>,Jan{C},Feb{C},Mar{C},Apr{C},May{C},Jun{C},Jul{C},Aug{C},Sep{C},Oct{C},Nov{C},Dec{C}
 Site:GroundTemperature:FCfactorMethod,   7.10,   3.00,  -1.00,   0.80,  -0.20,   4.80,   6.10,  13.70,  22.20,  22.70,  21.70,  18.50
! <Site:GroundTemperature:Shallow>,Jan{C},Feb{C},Mar{C},Apr{C},May{C},Jun{C},Jul{C},Aug{C},Sep{C},Oct{C},Nov{C},Dec{C}
 Site:GroundTemperature:Shallow,  13.00,  13.00,  13.00,  13.00,  13.00,  13.00,  13.00,  13.00,  13.00,  13.00,  13.00,  13.00
! <Site:GroundTemperature:Deep>,Jan{C},Feb{C},Mar{C},Apr{C},May{C},Jun{C},Jul{C},Aug{C},Sep{C},Oct{C},Nov{C},Dec{C}
 Site:GroundTemperature:Deep,  16.00,  16.00,  16.00,  16.00,  16.00,  16.00,  16.00,  16.00,  16.00,  16.00,  16.00,  16.00
! <Site:GroundReflectance>,Jan{dimensionless},Feb{dimensionless},Mar{dimensionless},Apr{dimensionless},May{dimensionless},Jun{dimensionless},Jul{dimensionless},Aug{dimensionless},Sep{dimensionless},Oct{dimensionless},Nov{dimensionless},Dec{dimensionless}
 Site:GroundReflectance,  0.20,  0.20,  0.20,  0.20,  0.20,  0.20,  0.20,  0.20,  0.20,  0.20,  0.20,  0.20
! <Site:GroundReflectance:SnowModifier>, Normal, Daylighting {dimensionless}
 Site:GroundReflectance:SnowModifier,   1.000,   1.000
! <Site:GroundReflectance:Snow>,Jan{dimensionless},Feb{dimensionless},Mar{dimensionless},Apr{dimensionless},May{dimensionless},Jun{dimensionless},Jul{dimensionless},Aug{dimensionless},Sep{dimensionless},Oct{dimensionless},Nov{dimensionless},Dec{dimensionless}
 Site:GroundReflectance:Snow,  0.20,  0.20,  0.20,  0.20,  0.20,  0.20,  0.20,  0.20,  0.20,  0.20,  0.20,  0.20
! <Site:GroundReflectance:Snow:Daylighting>,Jan{dimensionless},Feb{dimensionless},Mar{dimensionless},Apr{dimensionless},May{dimensionless},Jun{dimensionless},Jul{dimensionless},Aug{dimensionless},Sep{dimensionless},Oct{dimensionless},Nov{dimensionless},Dec{dimensionless}
 Site:GroundReflectance:Snow:Daylighting,  0.20,  0.20,  0.20,  0.20,  0.20,  0.20,  0.20,  0.20,  0.20,  0.20,  0.20,  0.20
! <Environment:Weather Station>,Wind Sensor Height Above Ground {m},Wind Speed Profile Exponent {},Wind Speed Profile Boundary Layer Thickness {m},Air Temperature Sensor Height Above Ground {m},Wind Speed Modifier Coefficient-Internal,Temperature Modifier Coefficient-Internal
Environment:Weather Station,10.000,0.140,270.000,1.500,1.586,9.750E-003
! <Site:Location>, Location Name, Latitude {N+/S- Deg}, Longitude {E+/W- Deg},  Time Zone Number {GMT+/-}, Elevation {m},  Standard Pressure at Elevation {Pa}, Standard RhoAir at Elevation
Site:Location,Tampa International Ap FL USA TMY3 WMO#=722110,27.97,-82.53,-5.00,6.00,101253,1.2035
! <Site Water Mains Temperature Information>,Calculation Method{},Water Mains Temperature Schedule Name{},Annual Average Outdoor Air Temperature{C},Maximum Difference In Monthly Average Outdoor Air Temperatures{deltaC},Fixed Default Water Mains Temperature{C}
Site Water Mains Temperature Information,Correlation,NA,9.95,23.70,NA
! <Building Information>, Building Name,North Axis {deg},Terrain,  Loads Convergence Tolerance Value,Temperature Convergence Tolerance Value,  Solar Distribution,Maximum Number of Warmup Days,Minimum Number of Warmup Days
 Building Information,OfficeLarge,0.000,City,4.00000E-002,0.20000,MinimalShadowing,15,6
! <Inside Convection Algorithm>, Algorithm {Simple | TARP | CeilingDiffuser | AdaptiveConvectionAlgorithm}
Inside Convection Algorithm,TARP
! <Outside Convection Algorithm>, Algorithm {SimpleCombined | TARP | MoWitt | DOE-2 | AdaptiveConvectionAlgorithm}
Outside Convection Algorithm,TARP
! <Sky Radiance Distribution>, Value {Anisotropic}
Sky Radiance Distribution,Anisotropic
! <Zone Air Solution Algorithm>, Algorithm {ThirdOrderBackwardDifference | AnalyticalSolution | EulerMethod}, Space Heat Balance Sizing, Space Heat Balance Simulation
 Zone Air Solution Algorithm, ThirdOrderBackwardDifference, No, No
! <Zone Air Carbon Dioxide Balance Simulation>, Simulation {Yes/No}, Carbon Dioxide Concentration
 Zone Air Carbon Dioxide Balance Simulation, No,N/A
! <Zone Air Generic Contaminant Balance Simulation>, Simulation {Yes/No}, Generic Contaminant Concentration
 Zone Air Generic Contaminant Balance Simulation, No,N/A
! <Zone Air Mass Flow Balance Simulation>, Enforce Mass Balance, Adjust Zone Mixing and Return {AdjustMixingOnly | AdjustReturnOnly | AdjustMixingThenReturn | AdjustReturnThenMixing | None}, Adjust Zone Infiltration {AddInfiltration | AdjustInfiltration | None}, Infiltration Zones {MixingSourceZonesOnly | AllZones}
 Zone Air Mass Flow Balance Simulation, No,N/A,N/A,N/A
! <HVACSystemRootFindingAlgorithm>, Value {RegulaFalsi | Bisection | BisectionThenRegulaFalsi | RegulaFalsiThenBisection}
 HVACSystemRootFindingAlgorithm, RegulaFalsi
! <Environment:Site Atmospheric Variation>,Wind Speed Profile Exponent {},Wind Speed Profile Boundary Layer Thickness {m},Air Temperature Gradient Coefficient {K/m}
Environment:Site Atmospheric Variation,0.330,460.000,6.500000E-003
! <Surface Geometry>,Starting Corner,Vertex Input Direction,Coordinate System,Daylight Reference Point Coordinate System,Rectangular (Simple) Surface Coordinate System
 Surface Geometry,UpperLeftCorner,Counterclockwise,RelativeCoordinateSystem,RelativeCoordinateSystem,RelativeToZoneOrigin
! <Surface Heat Transfer Algorithm>, Value {CTF - ConductionTransferFunction | EMPD - MoisturePenetrationDepthConductionTransferFunction | CondFD - ConductionFiniteDifference | HAMT - CombinedHeatAndMoistureFiniteElement} - Description,Inside Surface Max Temperature Limit{C}, Surface Convection Coefficient Lower Limit {W/m2-K}, Surface Convection Coefficient Upper Limit {W/m2-K}
Surface Heat Transfer Algorithm, CTF - ConductionTransferFunction,200,0.10,1000.0
! <Shading Summary>, Number of Fixed Detached Shades, Number of Building Detached Shades, Number of Attached Shades
 Shading Summary,0,0,0
! <Zone Summary>, Number of Zones, Number of Zone Surfaces, Number of SubSurfaces
 Zone Summary,23,221,36
! <Zone Information>,Zone Name,North Axis {deg},Origin X-Coordinate {m},Origin Y-Coordinate {m},Origin Z-Coordinate {m},Centroid X-Coordinate {m},Centroid Y-Coordinate {m},Centroid Z-Coordinate {m},Type,Zone Multiplier,Zone List Multiplier,Minimum X {m},Maximum X {m},Minimum Y {m},Maximum Y {m},Minimum Z {m},Maximum Z {m},Ceiling Height {m},Volume {m3},Zone Inside Convection Algorithm {Simple-Detailed-CeilingDiffuser-TrombeWall},Zone Outside Convection Algorithm {Simple-Detailed-Tarp-MoWitt-DOE-2-BLAST}, Floor Area {m2},Exterior Gross Wall Area {m2},Exterior Net Wall Area {m2},Exterior Window Area {m2}, Number of Surfaces, Number of SubSurfaces, Number of Shading SubSurfaces,  Part of Total Building Area
 Zone Information, BASEMENT,0.0,0.00,0.00,0.00,44.59,24.37,-1.22,1,1,1,16.08,73.11,0.00,48.74,-2.44,0.00,2.44,6779.02,TARP,TARP,2779.43,0.00,0.00,0.00,9,0,0,Yes
 Zone Information, CORE_BOTTOM,0.0,0.00,0.00,0.00,37.01,24.37,1.37,1,1,1,5.49,68.53,4.57,44.17,0.00,2.74,2.74,6849.35,TARP,TARP,2496.12,0.00,0.00,0.00,7,0,0,Yes
 Zone Information, CORE_MID,0.0,0.00,0.00,0.00,37.01,24.37,18.14,1,10,1,5.49,68.53,4.57,44.17,16.77,19.51,2.74,6849.35,TARP,TARP,2496.12,0.00,0.00,0.00,6,0,0,Yes
 Zone Information, CORE_TOP,0.0,0.00,0.00,0.00,37.01,24.37,34.91,1,1,1,5.49,68.53,4.57,44.17,33.54,36.28,2.74,6849.35,TARP,TARP,2496.12,0.00,0.00,0.00,6,0,0,Yes
 Zone Information, DATACENTER_BASEMENT_ZN_6,0.0,16.08,0.00,-2.44,8.04,24.37,-1.22,1,1,1,0.00,16.08,0.00,48.74,-2.44,0.00,2.44,1911.37,TARP,TARP,783.68,0.00,0.00,0.00,10,0,0,Yes
 Zone Information, DATACENTER_BOT_ZN_6,0.0,5.49,44.17,0.00,5.03,24.37,1.37,1,1,1,4.57,5.49,4.57,44.17,0.00,2.74,2.74,99.34,TARP,TARP,36.20,0.00,0.00,0.00,6,0,0,Yes
 Zone Information, DATACENTER_MID_ZN_6,0.0,4.57,4.57,16.77,5.03,24.37,18.14,1,10,1,4.57,5.49,4.57,44.17,16.77,19.51,2.74,99.34,TARP,TARP,36.20,0.00,0.00,0.00,6,0,0,Yes
 Zone Information, DATACENTER_TOP_ZN_6,0.0,4.57,4.57,33.54,5.03,24.37,34.91,1,1,1,4.57,5.49,4.57,44.17,33.54,36.28,2.74,99.34,TARP,TARP,36.20,0.00,0.00,0.00,6,0,0,Yes
 Zone Information, GROUNDFLOOR_PLENUM,0.0,0.00,0.00,0.00,36.55,24.37,3.35,1,1,1,0.00,73.11,0.00,48.74,2.74,3.96,1.22,4344.14,TARP,TARP,3563.11,297.11,297.11,0.00,11,0,0,No
 Zone Information, MIDFLOOR_PLENUM,0.0,0.00,0.00,0.00,36.55,24.37,20.12,1,10,1,0.00,73.11,0.00,48.74,19.51,20.73,1.22,4344.14,TARP,TARP,3563.11,297.11,297.11,0.00,11,0,0,No
 Zone Information, PERIMETER_BOT_ZN_1,0.0,0.00,0.00,0.00,36.55,2.20,1.37,1,1,1,0.00,73.11,0.00,4.57,0.00,2.74,2.74,860.02,TARP,TARP,313.42,200.61,76.91,115.90,8,9,0,Yes
 Zone Information, PERIMETER_BOT_ZN_2,0.0,0.00,0.00,0.00,70.95,24.37,1.37,1,1,1,68.53,73.11,0.00,48.74,0.00,2.74,2.74,554.22,TARP,TARP,201.98,133.74,52.57,77.26,6,5,0,Yes
 Zone Information, PERIMETER_BOT_ZN_3,0.0,0.00,0.00,0.00,36.55,46.54,1.37,1,1,1,0.00,73.11,44.17,48.74,0.00,2.74,2.74,860.00,TARP,TARP,313.41,200.61,76.91,115.90,8,9,0,Yes
 Zone Information, PERIMETER_BOT_ZN_4,0.0,0.00,0.00,0.00,2.16,24.37,1.37,1,1,1,0.00,4.57,0.00,48.74,0.00,2.74,2.74,554.22,TARP,TARP,201.98,133.74,52.57,77.26,6,5,0,Yes
 Zone Information, PERIMETER_MID_ZN_1,0.0,0.00,0.00,0.00,36.55,2.20,18.14,1,10,1,0.00,73.11,0.00,4.57,16.77,19.51,2.74,860.02,TARP,TARP,313.42,200.61,84.71,115.90,7,1,0,Yes
 Zone Information, PERIMETER_MID_ZN_2,0.0,0.00,0.00,0.00,70.95,24.37,18.14,1,10,1,68.53,73.11,0.00,48.74,16.77,19.51,2.74,554.22,TARP,TARP,201.98,133.74,56.47,77.26,6,1,0,Yes
 Zone Information, PERIMETER_MID_ZN_3,0.0,0.00,0.00,0.00,36.55,46.54,18.14,1,10,1,0.00,73.11,44.17,48.74,16.77,19.51,2.74,860.00,TARP,TARP,313.41,200.61,84.71,115.90,7,1,0,Yes
 Zone Information, PERIMETER_MID_ZN_4,0.0,0.00,0.00,0.00,2.16,24.37,18.14,1,10,1,0.00,4.57,0.00,48.74,16.77,19.51,2.74,554.22,TARP,TARP,201.98,133.74,56.47,77.26,6,1,0,Yes
 Zone Information, PERIMETER_TOP_ZN_1,0.0,0.00,0.00,0.00,36.55,2.20,34.91,1,1,1,0.00,73.11,0.00,4.57,33.54,36.28,2.74,860.02,TARP,TARP,313.42,200.61,84.71,115.90,7,1,0,Yes
 Zone Information, PERIMETER_TOP_ZN_2,0.0,0.00,0.00,0.00,70.95,24.37,34.91,1,1,1,68.53,73.11,0.00,48.74,33.54,36.28,2.74,554.22,TARP,TARP,201.98,133.74,56.47,77.26,6,1,0,Yes
 Zone Information, PERIMETER_TOP_ZN_3,0.0,0.00,0.00,0.00,36.55,46.54,34.91,1,1,1,0.00,73.11,44.17,48.74,33.54,36.28,2.74,860.00,TARP,TARP,313.41,200.61,84.71,115.90,7,1,0,Yes
 Zone Information, PERIMETER_TOP_ZN_4,0.0,0.00,0.00,0.00,2.16,24.37,34.91,1,1,1,0.00,4.57,0.00,48.74,33.54,36.28,2.74,554.22,TARP,TARP,201.98,133.74,56.47,77.26,6,1,0,Yes
 Zone Information, TOPFLOOR_PLENUM,0.0,0.00,0.00,0.00,36.55,24.37,36.89,1,1,1,0.00,73.11,0.00,48.74,36.28,37.50,1.22,4344.14,TARP,TARP,3563.11,297.11,297.11,0.00,11,0,0,No
! <Zone Internal Gains Nominal>,Zone Name, Floor Area {m2},# Occupants,Area per Occupant {m2/person},Occupant per Area {person/m2},Interior Lighting {W/m2},Electric Load {W/m2},Gas Load {W/m2},Other Load {W/m2},Hot Water Eq {W/m2},Steam Equipment {W/m2},Sum Loads per Area {W/m2},Outdoor Controlled Baseboard Heat
 Zone Internal Gains Nominal, BASEMENT,2779.43,149.6,18.579,5.382E-002,6.889,4.842,0.000,0.000,0.000,0.000,11.731,No
 Zone Internal Gains Nominal, CORE_BOTTOM,2496.12,134.4,18.579,5.382E-002,6.889,8.070,0.000,0.000,0.000,0.000,14.959,No
 Zone Internal Gains Nominal, CORE_MID,2496.12,134.4,18.579,5.382E-002,6.889,8.070,0.000,0.000,0.000,0.000,14.959,No
 Zone Internal Gains Nominal, CORE_TOP,2496.12,134.4,18.579,5.382E-002,6.889,8.070,0.000,0.000,0.000,0.000,14.959,No
 Zone Internal Gains Nominal, DATACENTER_BASEMENT_ZN_6,783.68,0.0,N/A,0.000,6.889,484.423,0.000,0.000,0.000,0.000,491.312,No
 Zone Internal Gains Nominal, DATACENTER_BOT_ZN_6,36.20,0.0,N/A,0.000,6.889,215.299,0.000,0.000,0.000,0.000,222.188,No
 Zone Internal Gains Nominal, DATACENTER_MID_ZN_6,36.20,0.0,N/A,0.000,6.889,215.299,0.000,0.000,0.000,0.000,222.188,No
 Zone Internal Gains Nominal, DATACENTER_TOP_ZN_6,36.20,0.0,N/A,0.000,6.889,215.299,0.000,0.000,0.000,0.000,222.188,No
 Zone Internal Gains Nominal, GROUNDFLOOR_PLENUM,3563.11,0.0,N/A,0.000,0.000,0.000,0.000,0.000,0.000,0.000,0.000,No
 Zone Internal Gains Nominal, MIDFLOOR_PLENUM,3563.11,0.0,N/A,0.000,0.000,0.000,0.000,0.000,0.000,0.000,0.000,No
 Zone Internal Gains Nominal, PERIMETER_BOT_ZN_1,313.42,16.9,18.579,5.382E-002,6.889,8.070,0.000,0.000,0.000,0.000,14.959,No
 Zone Internal Gains Nominal, PERIMETER_BOT_ZN_2,201.98,10.9,18.579,5.382E-002,6.889,8.070,0.000,0.000,0.000,0.000,14.959,No
 Zone Internal Gains Nominal, PERIMETER_BOT_ZN_3,313.41,16.9,18.579,5.382E-002,6.889,8.070,0.000,0.000,0.000,0.000,14.959,No
 Zone Internal Gains Nominal, PERIMETER_BOT_ZN_4,201.98,10.9,18.579,5.382E-002,6.889,8.070,0.000,0.000,0.000,0.000,14.959,No
 Zone Internal Gains Nominal, PERIMETER_MID_ZN_1,313.42,16.9,18.579,5.382E-002,6.889,8.070,0.000,0.000,0.000,0.000,14.959,No
 Zone Internal Gains Nominal, PERIMETER_MID_ZN_2,201.98,10.9,18.579,5.382E-002,6.889,8.070,0.000,0.000,0.000,0.000,14.959,No
 Zone Internal Gains Nominal, PERIMETER_MID_ZN_3,313.41,16.9,18.579,5.382E-002,6.889,8.070,0.000,0.000,0.000,0.000,14.959,No
 Zone Internal Gains Nominal, PERIMETER_MID_ZN_4,201.98,10.9,18.579,5.382E-002,6.889,8.070,0.000,0.000,0.000,0.000,14.959,No
 Zone Internal Gains Nominal, PERIMETER_TOP_ZN_1,313.42,16.9,18.579,5.382E-002,6.889,8.070,0.000,0.000,0.000,0.000,14.959,No
 Zone Internal Gains Nominal, PERIMETER_TOP_ZN_2,201.98,10.9,18.579,5.382E-002,6.889,8.070,0.000,0.000,0.000,0.000,14.959,No
 Zone Internal Gains Nominal, PERIMETER_TOP_ZN_3,313.41,16.9,18.579,5.382E-002,6.889,8.070,0.000,0.000,0.000,0.000,14.959,No
 Zone Internal Gains Nominal, PERIMETER_TOP_ZN_4,201.98,10.9,18.579,5.382E-002,6.889,8.070,0.000,0.000,0.000,0.000,14.959,No
 Zone Internal Gains Nominal, TOPFLOOR_PLENUM,3563.11,0.0,N/A,0.000,0.000,0.000,0.000,0.000,0.000,0.000,0.000,No
! <People Internal Gains Nominal>,Name,Schedule Name,Zone Name,Zone Floor Area {m2},# Zone Occupants,Number of People {},People/Floor Area {person/m2},Floor Area per person {m2/person},Fraction Radiant,Fraction Convected,Sensible Fraction Calculation,Activity level,ASHRAE 55 Warnings,Carbon Dioxide Generation Rate,Nominal Minimum Number of People,Nominal Maximum Number of People,MRT Calculation Type,Work Efficiency, Clothing Insulation Calculation Method,Clothing Insulation Calculation Method Schedule,Clothing,Air Velocity,Fanger Calculation,Pierce Calculation,KSU Calculation,Cooling Effect Calculation,Ankle Draft Calculation
 People Internal Gains Nominal, BASEMENT,BLDG_OCC_SCH_WO_SB,BASEMENT,2779.43,149.6,149.6,5.382E-002,18.579,0.300,0.700,AutoCalculate,ACTIVITY_SCH,No,3.8200E-008,0,150,Zone Averaged,WORK_EFF_SCH,Clothing Insulation Schedule,N/A,CLOTHING_SCH,AIR_VELO_SCH,Yes,No,No,No,No
 People Internal Gains Nominal, CORE_BOTTOM,BLDG_OCC_SCH_WO_SB,CORE_BOTTOM,2496.12,134.4,134.4,5.382E-002,18.579,0.300,0.700,AutoCalculate,ACTIVITY_SCH,No,3.8200E-008,0,134,Zone Averaged,WORK_EFF_SCH,Clothing Insulation Schedule,N/A,CLOTHING_SCH,AIR_VELO_SCH,Yes,No,No,No,No
 People Internal Gains Nominal, CORE_MID,BLDG_OCC_SCH_WO_SB,CORE_MID,2496.12,134.4,134.4,5.382E-002,18.579,0.300,0.700,AutoCalculate,ACTIVITY_SCH,No,3.8200E-008,0,134,Zone Averaged,WORK_EFF_SCH,Clothing Insulation Schedule,N/A,CLOTHING_SCH,AIR_VELO_SCH,Yes,No,No,No,No
 People Internal Gains Nominal, CORE_TOP,BLDG_OCC_SCH_WO_SB,CORE_TOP,2496.12,134.4,134.4,5.382E-002,18.579,0.300,0.700,AutoCalculate,ACTIVITY_SCH,No,3.8200E-008,0,134,Zone Averaged,WORK_EFF_SCH,Clothing Insulation Schedule,N/A,CLOTHING_SCH,AIR_VELO_SCH,Yes,No,No,No,No
 People Internal Gains Nominal, PERIMETER_BOT_ZN_1,BLDG_OCC_SCH_WO_SB,PERIMETER_BOT_ZN_1,313.42,16.9,16.9,5.382E-002,18.579,0.300,0.700,AutoCalculate,ACTIVITY_SCH,No,3.8200E-008,0,17,Zone Averaged,WORK_EFF_SCH,Clothing Insulation Schedule,N/A,CLOTHING_SCH,AIR_VELO_SCH,Yes,No,No,No,No
 People Internal Gains Nominal, PERIMETER_BOT_ZN_2,BLDG_OCC_SCH_WO_SB,PERIMETER_BOT_ZN_2,201.98,10.9,10.9,5.382E-002,18.579,0.300,0.700,AutoCalculate,ACTIVITY_SCH,No,3.8200E-008,0,11,Zone Averaged,WORK_EFF_SCH,Clothing Insulation Schedule,N/A,CLOTHING_SCH,AIR_VELO_SCH,Yes,No,No,No,No
 People Internal Gains Nominal, PERIMETER_BOT_ZN_3,BLDG_OCC_SCH_WO_SB,PERIMETER_BOT_ZN_3,313.41,16.9,16.9,5.382E-002,18.579,0.300,0.700,AutoCalculate,ACTIVITY_SCH,No,3.8200E-008,0,17,Zone Averaged,WORK_EFF_SCH,Clothing Insulation Schedule,N/A,CLOTHING_SCH,AIR_VELO_SCH,Yes,No,No,No,No
 People Internal Gains Nominal, PERIMETER_BOT_ZN_4,BLDG_OCC_SCH_WO_SB,PERIMETER_BOT_ZN_4,201.98,10.9,10.9,5.382E-002,18.579,0.300,0.700,AutoCalculate,ACTIVITY_SCH,No,3.8200E-008,0,11,Zone Averaged,WORK_EFF_SCH,Clothing Insulation Schedule,N/A,CLOTHING_SCH,AIR_VELO_SCH,Yes,No,No,No,No
 People Internal Gains Nominal, PERIMETER_MID_ZN_1,BLDG_OCC_SCH_WO_SB,PERIMETER_MID_ZN_1,313.42,16.9,16.9,5.382E-002,18.579,0.300,0.700,AutoCalculate,ACTIVITY_SCH,No,3.8200E-008,0,17,Zone Averaged,WORK_EFF_SCH,Clothing Insulation Schedule,N/A,CLOTHING_SCH,AIR_VELO_SCH,Yes,No,No,No,No
 People Internal Gains Nominal, PERIMETER_MID_ZN_2,BLDG_OCC_SCH_W_SB,PERIMETER_MID_ZN_2,201.98,10.9,10.9,5.382E-002,18.579,0.300,0.700,AutoCalculate,ACTIVITY_SCH,No,3.8200E-008,0,11,Zone Averaged,WORK_EFF_SCH,Clothing Insulation Schedule,N/A,CLOTHING_SCH,AIR_VELO_SCH,Yes,No,No,No,No
 People Internal Gains Nominal, PERIMETER_MID_ZN_3,BLDG_OCC_SCH_WO_SB,PERIMETER_MID_ZN_3,313.41,16.9,16.9,5.382E-002,18.579,0.300,0.700,AutoCalculate,ACTIVITY_SCH,No,3.8200E-008,0,17,Zone Averaged,WORK_EFF_SCH,Clothing Insulation Schedule,N/A,CLOTHING_SCH,AIR_VELO_SCH,Yes,No,No,No,No
 People Internal Gains Nominal, PERIMETER_MID_ZN_4,BLDG_OCC_SCH_WO_SB,PERIMETER_MID_ZN_4,201.98,10.9,10.9,5.382E-002,18.579,0.300,0.700,AutoCalculate,ACTIVITY_SCH,No,3.8200E-008,0,11,Zone Averaged,WORK_EFF_SCH,Clothing Insulation Schedule,N/A,CLOTHING_SCH,AIR_VELO_SCH,Yes,No,No,No,No
 People Internal Gains Nominal, PERIMETER_TOP_ZN_1,BLDG_OCC_SCH_WO_SB,PERIMETER_TOP_ZN_1,313.42,16.9,16.9,5.382E-002,18.579,0.300,0.700,AutoCalculate,ACTIVITY_SCH,No,3.8200E-008,0,17,Zone Averaged,WORK_EFF_SCH,Clothing Insulation Schedule,N/A,CLOTHING_SCH,AIR_VELO_SCH,Yes,No,No,No,No
 People Internal Gains Nominal, PERIMETER_TOP_ZN_2,BLDG_OCC_SCH_WO_SB,PERIMETER_TOP_ZN_2,201.98,10.9,10.9,5.382E-002,18.579,0.300,0.700,AutoCalculate,ACTIVITY_SCH,No,3.8200E-008,0,11,Zone Averaged,WORK_EFF_SCH,Clothing Insulation Schedule,N/A,CLOTHING_SCH,AIR_VELO_SCH,Yes,No,No,No,No
 People Internal Gains Nominal, PERIMETER_TOP_ZN_3,BLDG_OCC_SCH_WO_SB,PERIMETER_TOP_ZN_3,313.41,16.9,16.9,5.382E-002,18.579,0.300,0.700,AutoCalculate,ACTIVITY_SCH,No,3.8200E-008,0,17,Zone Averaged,WORK_EFF_SCH,Clothing Insulation Schedule,N/A,CLOTHING_SCH,AIR_VELO_SCH,Yes,No,No,No,No
 People Internal Gains Nominal, PERIMETER_TOP_ZN_4,BLDG_OCC_SCH_WO_SB,PERIMETER_TOP_ZN_4,201.98,10.9,10.9,5.382E-002,18.579,0.300,0.700,AutoCalculate,ACTIVITY_SCH,No,3.8200E-008,0,11,Zone Averaged,WORK_EFF_SCH,Clothing Insulation Schedule,N/A,CLOTHING_SCH,AIR_VELO_SCH,Yes,No,No,No,No
! <Lights Internal Gains Nominal>,Name,Schedule Name,Zone Name,Zone Floor Area {m2},# Zone Occupants,Lighting Level {W},Lights/Floor Area {W/m2},Lights per person {W/person},Fraction Return Air,Fraction Radiant,Fraction Short Wave,Fraction Convected,Fraction Replaceable,End-Use Category,Nominal Minimum Lighting Level {W},Nominal Maximum Lighting Level {W}
 Lights Internal Gains Nominal, BASEMENT_LIGHTS,BLDG_LIGHT_SCH,BASEMENT,2779.43,149.6,19147.199,6.889,127.988,0.000,0.700,0.200,0.100,1.000,LightsWired,0.000,19147.199
 Lights Internal Gains Nominal, CORE_BOTTOM_LIGHTS,BLDG_LIGHT_SCH,CORE_BOTTOM,2496.12,134.4,17195.531,6.889,127.988,0.000,0.700,0.200,0.100,1.000,LightsWired,0.000,17195.531
 Lights Internal Gains Nominal, CORE_MID_LIGHTS,BLDG_LIGHT_SCH,CORE_MID,2496.12,134.4,17195.531,6.889,127.988,0.000,0.700,0.200,0.100,1.000,LightsWired,0.000,17195.531
 Lights Internal Gains Nominal, CORE_TOP_LIGHTS,BLDG_LIGHT_SCH,CORE_TOP,2496.12,134.4,17195.531,6.889,127.988,0.000,0.700,0.200,0.100,1.000,LightsWired,0.000,17195.531
 Lights Internal Gains Nominal, DATACENTER_BASEMENT_LIGHTS,BLDG_LIGHT_SCH,DATACENTER_BASEMENT_ZN_6,783.68,0.0,5398.691,6.889,N/A,0.000,0.700,0.200,0.100,1.000,LightsWired,0.000,5398.691
 Lights Internal Gains Nominal, DATACENTER_BOT_LIGHTS,BLDG_LIGHT_SCH,DATACENTER_BOT_ZN_6,36.20,0.0,249.397,6.889,N/A,0.000,0.700,0.200,0.100,1.000,LightsWired,0.000,249.397
 Lights Internal Gains Nominal, DATACENTER_MID_LIGHTS,BLDG_LIGHT_SCH,DATACENTER_MID_ZN_6,36.20,0.0,249.397,6.889,N/A,0.000,0.700,0.200,0.100,1.000,LightsWired,0.000,249.397
 Lights Internal Gains Nominal, DATACENTER_TOP_LIGHTS,BLDG_LIGHT_SCH,DATACENTER_TOP_ZN_6,36.20,0.0,249.397,6.889,N/A,0.000,0.700,0.200,0.100,1.000,LightsWired,0.000,249.397
 Lights Internal Gains Nominal, PERIMETER_BOT_ZN_1_LIGHTS,BLDG_LIGHT_SCH,PERIMETER_BOT_ZN_1,313.42,16.9,2159.118,6.889,127.988,0.000,0.700,0.200,0.100,1.000,LightsWired,0.000,2159.118
 Lights Internal Gains Nominal, PERIMETER_BOT_ZN_2_LIGHTS,BLDG_LIGHT_SCH,PERIMETER_BOT_ZN_2,201.98,10.9,1391.387,6.889,127.988,0.000,0.700,0.200,0.100,1.000,LightsWired,0.000,1391.387
 Lights Internal Gains Nominal, PERIMETER_BOT_ZN_3_LIGHTS,BLDG_LIGHT_SCH,PERIMETER_BOT_ZN_3,313.41,16.9,2159.071,6.889,127.988,0.000,0.700,0.200,0.100,1.000,LightsWired,0.000,2159.071
 Lights Internal Gains Nominal, PERIMETER_BOT_ZN_4_LIGHTS,BLDG_LIGHT_SCH,PERIMETER_BOT_ZN_4,201.98,10.9,1391.387,6.889,127.988,0.000,0.700,0.200,0.100,1.000,LightsWired,0.000,1391.387
 Lights Internal Gains Nominal, PERIMETER_MID_ZN_1_LIGHTS,BLDG_LIGHT_SCH,PERIMETER_MID_ZN_1,313.42,16.9,2159.118,6.889,127.988,0.000,0.700,0.200,0.100,1.000,LightsWired,0.000,2159.118
 Lights Internal Gains Nominal, PERIMETER_MID_ZN_2_LIGHTS,BLDG_LIGHT_SCH,PERIMETER_MID_ZN_2,201.98,10.9,1391.387,6.889,127.988,0.000,0.700,0.200,0.100,1.000,LightsWired,0.000,1391.387
 Lights Internal Gains Nominal, PERIMETER_MID_ZN_3_LIGHTS,BLDG_LIGHT_SCH,PERIMETER_MID_ZN_3,313.41,16.9,2159.071,6.889,127.988,0.000,0.700,0.200,0.100,1.000,LightsWired,0.000,2159.071
 Lights Internal Gains Nominal, PERIMETER_MID_ZN_4_LIGHTS,BLDG_LIGHT_SCH,PERIMETER_MID_ZN_4,201.98,10.9,1391.387,6.889,127.988,0.000,0.700,0.200,0.100,1.000,LightsWired,0.000,1391.387
 Lights Internal Gains Nominal, PERIMETER_TOP_ZN_1_LIGHTS,BLDG_LIGHT_SCH,PERIMETER_TOP_ZN_1,313.42,16.9,2159.118,6.889,127.988,0.000,0.700,0.200,0.100,1.000,LightsWired,0.000,2159.118
 Lights Internal Gains Nominal, PERIMETER_TOP_ZN_2_LIGHTS,BLDG_LIGHT_SCH,PERIMETER_TOP_ZN_2,201.98,10.9,1391.387,6.889,127.988,0.000,0.700,0.200,0.100,1.000,LightsWired,0.000,1391.387
 Lights Internal Gains Nominal, PERIMETER_TOP_ZN_3_LIGHTS,BLDG_LIGHT_SCH,PERIMETER_TOP_ZN_3,313.41,16.9,2159.071,6.889,127.988,0.000,0.700,0.200,0.100,1.000,LightsWired,0.000,2159.071
 Lights Internal Gains Nominal, PERIMETER_TOP_ZN_4_LIGHTS,BLDG_LIGHT_SCH,PERIMETER_TOP_ZN_4,201.98,10.9,1391.387,6.889,127.988,0.000,0.700,0.200,0.100,1.000,LightsWired,0.000,1391.387
! <ElectricEquipment Internal Gains Nominal>,Name,Schedule Name,Zone Name,Zone Floor Area {m2},# Zone Occupants,Equipment Level {W},Equipment/Floor Area {W/m2},Equipment per person {W/person},Fraction Latent,Fraction Radiant,Fraction Lost,Fraction Convected,End-Use SubCategory,Nominal Minimum Equipment Level {W},Nominal Maximum Equipment Level {W}
 ElectricEquipment Internal Gains Nominal, BASEMENT_MISCPLUG_EQUIP,ALWAYS_ON,BASEMENT,2779.43,149.6,13457.544,4.842,89.956,0.000,0.500,0.000,0.500,MiscPlug,13457.544,13457.544
 ElectricEquipment Internal Gains Nominal, CORE_BOTTOM_MISCPLUG_EQUIP,BLDG_EQUIP_SCH,CORE_BOTTOM,2496.12,134.4,20142.877,8.070,149.925,0.000,0.500,0.000,0.500,MiscPlug,0.000,20142.877
 ElectricEquipment Internal Gains Nominal, CORE_MID_MISCPLUG_EQUIP,BLDG_EQUIP_SCH,CORE_MID,2496.12,134.4,20142.800,8.070,149.924,0.000,0.500,0.000,0.500,MiscPlug,0.000,20142.800
 ElectricEquipment Internal Gains Nominal, CORE_TOP_MISCPLUG_EQUIP,BLDG_EQUIP_SCH,CORE_TOP,2496.12,134.4,20142.800,8.070,149.924,0.000,0.500,0.000,0.500,MiscPlug,0.000,20142.800
 ElectricEquipment Internal Gains Nominal, DATACENTER_BASEMENT_MISCPLUG_EQUIP,DATACENTER_EQUIP_SCH,DATACENTER_BASEMENT_ZN_6,783.68,0.0,379632.522,484.423,N/A,0.000,0.100,0.000,0.900,DataCenterPlugLoads,94908.130,379632.522
 ElectricEquipment Internal Gains Nominal, DATACENTER_BOT_MISCPLUG_EQUIP,DATACENTER_EQUIP_SCH,DATACENTER_BOT_ZN_6,36.20,0.0,7794.422,215.299,N/A,0.000,0.100,0.000,0.900,DataCenterPlugLoads,1948.606,7794.422
 ElectricEquipment Internal Gains Nominal, DATACENTER_MID_MISCPLUG_EQUIP,DATACENTER_EQUIP_SCH,DATACENTER_MID_ZN_6,36.20,0.0,7794.422,215.299,N/A,0.000,0.100,0.000,0.900,DataCenterPlugLoads,1948.606,7794.422
 ElectricEquipment Internal Gains Nominal, DATACENTER_TOP_MISCPLUG_EQUIP,DATACENTER_EQUIP_SCH,DATACENTER_TOP_ZN_6,36.20,0.0,7794.422,215.299,N/A,0.000,0.100,0.000,0.900,DataCenterPlugLoads,1948.606,7794.422
 ElectricEquipment Internal Gains Nominal, PERIMETER_BOT_ZN_1_MISCPLUG_EQUIP,BLDG_EQUIP_SCH,PERIMETER_BOT_ZN_1,313.42,16.9,2529.281,8.070,149.930,0.000,0.500,0.000,0.500,MiscPlug,0.000,2529.281
 ElectricEquipment Internal Gains Nominal, PERIMETER_BOT_ZN_2_MISCPLUG_EQUIP,BLDG_EQUIP_SCH,PERIMETER_BOT_ZN_2,201.98,10.9,1629.940,8.070,149.931,0.000,0.500,0.000,0.500,MiscPlug,0.000,1629.940
 ElectricEquipment Internal Gains Nominal, PERIMETER_BOT_ZN_3_MISCPLUG_EQUIP,BLDG_EQUIP_SCH,PERIMETER_BOT_ZN_3,313.41,16.9,2529.242,8.070,149.931,0.000,0.500,0.000,0.500,MiscPlug,0.000,2529.242
 ElectricEquipment Internal Gains Nominal, PERIMETER_BOT_ZN_4_MISCPLUG_EQUIP,BLDG_EQUIP_SCH,PERIMETER_BOT_ZN_4,201.98,10.9,1629.929,8.070,149.930,0.000,0.500,0.000,0.500,MiscPlug,0.000,1629.929
 ElectricEquipment Internal Gains Nominal, PERIMETER_MID_ZN_1_MISCPLUG_EQUIP,BLDG_EQUIP_SCH,PERIMETER_MID_ZN_1,313.42,16.9,2529.281,8.070,149.930,0.000,0.500,0.000,0.500,MiscPlug,0.000,2529.281
 ElectricEquipment Internal Gains Nominal, PERIMETER_MID_ZN_2_MISCPLUG_EQUIP,BLDG_EQUIP_SCH,PERIMETER_MID_ZN_2,201.98,10.9,1629.940,8.070,149.931,0.000,0.500,0.000,0.500,MiscPlug,0.000,1629.940
 ElectricEquipment Internal Gains Nominal, PERIMETER_MID_ZN_3_MISCPLUG_EQUIP,BLDG_EQUIP_SCH,PERIMETER_MID_ZN_3,313.41,16.9,2529.242,8.070,149.931,0.000,0.500,0.000,0.500,MiscPlug,0.000,2529.242
 ElectricEquipment Internal Gains Nominal, PERIMETER_MID_ZN_4_MISCPLUG_EQUIP,BLDG_EQUIP_SCH,PERIMETER_MID_ZN_4,201.98,10.9,1629.929,8.070,149.930,0.000,0.500,0.000,0.500,MiscPlug,0.000,1629.929
 ElectricEquipment Internal Gains Nominal, PERIMETER_TOP_ZN_1_MISCPLUG_EQUIP,BLDG_EQUIP_SCH,PERIMETER_TOP_ZN_1,313.42,16.9,2529.281,8.070,149.930,0.000,0.500,0.000,0.500,MiscPlug,0.000,2529.281
 ElectricEquipment Internal Gains Nominal, PERIMETER_TOP_ZN_2_MISCPLUG_EQUIP,BLDG_EQUIP_SCH,PERIMETER_TOP_ZN_2,201.98,10.9,1629.940,8.070,149.931,0.000,0.500,0.000,0.500,MiscPlug,0.000,1629.940
 ElectricEquipment Internal Gains Nominal, PERIMETER_TOP_ZN_3_MISCPLUG_EQUIP,BLDG_EQUIP_SCH,PERIMETER_TOP_ZN_3,313.41,16.9,2529.242,8.070,149.931,0.000,0.500,0.000,0.500,MiscPlug,0.000,2529.242
 ElectricEquipment Internal Gains Nominal, PERIMETER_TOP_ZN_4_MISCPLUG_EQUIP,BLDG_EQUIP_SCH,PERIMETER_TOP_ZN_4,201.98,10.9,1629.929,8.070,149.930,0.000,0.500,0.000,0.500,MiscPlug,0.000,1629.929
! <Construction CTF>,Construction Name,Index,#Layers,#CTFs,Time Step {hours},ThermalConductance {w/m2-K},OuterThermalAbsorptance,InnerThermalAbsorptance,OuterSolarAbsorptance,InnerSolarAbsorptance,Roughness
! <Material CTF Summary>,Material Name,Thickness {m},Conductivity {w/m-K},Density {kg/m3},Specific Heat {J/kg-K},ThermalResistance {m2-K/w}
! <Material:Air>,Material Name,ThermalResistance {m2-K/w}
! <CTF>,Time,Outside,Cross,Inside,Flux (except final one)
 Construction CTF,DROPCEILING,   3,   1,   3,   0.250,      4.488    ,   0.900,   0.900,   0.700,   0.700,MediumSmooth
 Material CTF Summary,AC02 ACOUSTIC CEILING,  0.0127,         0.057,    288.000,     1339.000,  0.2228    
 CTF,   3,     -0.53260828E-14,      0.38590732E-14,     -0.53260829E-14,       0.0000000    
 CTF,   2,      0.29572608E-03,      0.17480917E-03,      0.29572608E-03,     -0.50670342E-13
 CTF,   1,      -1.7155691    ,       1.0037059    ,      -1.7155691    ,      0.66704272E-03
 CTF,   0,       6.2004685    ,       3.4813145    ,       6.2004685    
 Construction CTF,INTERIORFURNISHINGS,   4,   1,   7,   0.250,     0.8000    ,   0.900,   0.900,   0.700,   0.700,MediumSmooth
 Material CTF Summary,STD WOOD 6INCH,  0.1500,         0.120,    540.000,     1210.000,   1.250    
 CTF,   7,     -0.19879948E-01,      0.18371110E-08,     -0.19879948E-01,      0.25920384E-02
 CTF,   6,      0.37833182    ,      0.93111392E-06,      0.37833182    ,     -0.50805208E-01
 CTF,   5,      -2.8822885    ,      0.33090332E-04,      -2.8822885    ,      0.40100636    
 CTF,   4,       11.391948    ,      0.23980383E-03,       11.391948    ,      -1.6521297    
 CTF,   3,      -25.286828    ,      0.46344169E-03,      -25.286828    ,       3.8446603    
 CTF,   2,       31.657742    ,      0.23933549E-03,       31.657742    ,      -5.0707043    
 CTF,   1,      -20.807361    ,      0.25331892E-04,      -20.807361    ,       3.5241279    
 CTF,   0,       5.5693388    ,      0.18852057E-06,       5.5693388    
 Construction CTF,SWINGING DOOR_CON,   6,   1,   1,   0.250,      2.101    ,   0.900,   0.900,   0.700,   0.700,MediumRough
 Material CTF Summary,OPAQUE DOOR PANEL_CON,  0.0000,         0.000,      0.000,        0.000,  0.4760    
 CTF,   1,       0.0000000    ,       0.0000000    ,      -0.0000000    ,      -0.0000000    
 CTF,   0,       2.1010000    ,       2.1010000    ,       2.1010000    
 Construction CTF,EXT_SLAB_8IN_WITH_CARPET,  12,   2,   7,   0.250,      3.285    ,   0.900,   0.900,   0.700,   0.700,MediumRough
 Material CTF Summary,200MM NORMALWEIGHT CONCRETE FLOOR,  0.2032,         2.310,   2322.000,      832.000,  0.8797E-01
 Material CTF Summary,CP02 CARPET PAD,  0.0000,         0.000,      0.000,        0.000,  0.2165    
 CTF,   7,     -0.10378937E-14,     -0.57568845E-15,     -0.49053640E-10,     -0.25280578E-17
 CTF,   6,      0.22253093E-02,      0.74852569E-07,      0.11525024E-03,     -0.21216748E-04
 CTF,   5,     -0.16504329    ,      0.46682053E-04,     -0.84513039E-02,      0.16388344E-02
 CTF,   4,       3.7453048    ,      0.21966331E-02,      0.19659200    ,     -0.39849567E-01
 CTF,   3,      -30.717465    ,      0.18038764E-01,      -1.7434326    ,      0.36581047    
 CTF,   2,       97.127517    ,      0.30720456E-01,       6.2408452    ,      -1.3453403    
 CTF,   1,      -123.02143    ,      0.96741016E-02,      -9.0622796    ,       1.9992282    
 CTF,   0,       53.089772    ,      0.20065040E-03,       4.4374874    
 Construction CTF,INT_SLAB_CEILING,  14,   2,   6,   0.250,      3.839    ,   0.900,   0.900,   0.700,   0.700,VeryRough
 Material CTF Summary,CP02 CARPET PAD,  0.0000,         0.000,      0.000,        0.000,  0.2165    
 Material CTF Summary,100MM NORMALWEIGHT CONCRETE FLOOR,  0.1016,         2.310,   2322.000,      832.000,  0.4398E-01
 CTF,   6,      0.34850959E-15,      0.23320036E-14,      0.12637169E-13,      0.44550916E-16
 CTF,   5,     -0.39969524E-09,      0.13931939E-08,     -0.24159609E-07,      0.71956901E-12
 CTF,   4,      0.50620122E-05,      0.27481775E-04,      0.96276627E-03,     -0.15578040E-06
 CTF,   3,     -0.51311376E-02,      0.12594216E-01,     -0.86089205    ,      0.80173640E-03
 CTF,   2,      0.51152910    ,      0.27225762    ,       28.790752    ,     -0.10404061    
 CTF,   1,      -4.0761999    ,      0.49524353    ,      -97.558265    ,      0.88415844    
 CTF,   0,       4.4109175    ,      0.60998930E-01,       70.468563    
 Construction CTF,INT_SLAB_FLOOR,  15,   2,   6,   0.250,      3.839    ,   0.900,   0.900,   0.700,   0.700,MediumRough
 Material CTF Summary,100MM NORMALWEIGHT CONCRETE FLOOR,  0.1016,         2.310,   2322.000,      832.000,  0.4398E-01
 Material CTF Summary,CP02 CARPET PAD,  0.0000,         0.000,      0.000,        0.000,  0.2165    
 CTF,   6,      0.12637169E-13,      0.23320036E-14,      0.34850959E-15,      0.44550916E-16
 CTF,   5,     -0.24159609E-07,      0.13931939E-08,     -0.39969524E-09,      0.71956901E-12
 CTF,   4,      0.96276627E-03,      0.27481775E-04,      0.50620122E-05,     -0.15578040E-06
 CTF,   3,     -0.86089205    ,      0.12594216E-01,     -0.51311376E-02,      0.80173640E-03
 CTF,   2,       28.790752    ,      0.27225762    ,      0.51152910    ,     -0.10404061    
 CTF,   1,      -97.558265    ,      0.49524353    ,      -4.0761999    ,      0.88415844    
 CTF,   0,       70.468563    ,      0.60998930E-01,       4.4109175    
 Construction CTF,INT_WALL,  16,   2,   4,   0.250,      6.299    ,   0.900,   0.900,   0.700,   0.700,Smooth
 Material CTF Summary,G01 13MM GYPSUM BOARD,  0.0127,         0.160,    800.000,     1090.000,  0.7937E-01
 Material CTF Summary,G01 13MM GYPSUM BOARD,  0.0127,         0.160,    800.000,     1090.000,  0.7937E-01
 CTF,   4,      0.12042566E-13,      0.45929688E-14,      0.12042579E-13,       0.0000000    
 CTF,   3,     -0.90043060E-05,      0.30474453E-05,     -0.90043060E-05,      0.18391453E-13
 CTF,   2,      0.23735444    ,      0.83694685E-01,      0.23735444    ,     -0.65848504E-05
 CTF,   1,      -8.4013897    ,       3.1829864    ,      -8.4013897    ,      0.83534042E-01
 CTF,   0,       13.937100    ,       2.5063712    ,       13.937100    
 Construction CTF,NONRES_EXT_WALL,  18,   3,   8,   0.250,     0.5534    ,   0.900,   0.900,   0.700,   0.700,MediumRough
 Material CTF Summary,200MM NORMALWEIGHT CONCRETE WALL,  0.2032,         2.310,   2322.000,      832.000,  0.8797E-01
 Material CTF Summary,NONRES_EXTERIOR_WALL_INSULATION,  0.0000,         0.000,      0.000,        0.000,   1.640    
 Material CTF Summary,G01 13MM GYPSUM BOARD,  0.0127,         0.160,    800.000,     1090.000,  0.7937E-01
 CTF,   8,      0.48879511E-12,      0.30832180E-14,      0.32657181E-05,     -0.46575257E-14
 CTF,   7,     -0.18833357E-03,      0.84704185E-09,     -0.51160796E-03,      0.17956274E-05
 CTF,   6,      0.16155141E-01,      0.72744564E-06,      0.26173381E-01,     -0.15955125E-03
 CTF,   5,     -0.48424220    ,      0.55913811E-04,     -0.55072253    ,      0.50314935E-02
 CTF,   4,       6.4531982    ,      0.84965633E-03,       4.9828121    ,     -0.71917309E-01
 CTF,   3,      -39.833806    ,      0.31567274E-02,      -20.260473    ,      0.49048393    
 CTF,   2,       109.59897    ,      0.28343040E-02,       38.914088    ,      -1.5454453    
 CTF,   1,      -128.83248    ,      0.46884845E-03,      -34.664113    ,       2.1086855    
 CTF,   0,       53.089765    ,      0.44941664E-05,       11.560113    
 Construction CTF,NONRES_ROOF,  21,   3,   3,   0.250,     0.1864    ,   0.900,   0.900,   0.700,   0.700,Rough
 Material CTF Summary,F13 BUILT-UP ROOFING,  0.0095,         0.160,   1120.000,     1460.000,  0.5938E-01
 Material CTF Summary,NONRES_ROOF_INSULATION,  0.0000,         0.000,      0.000,        0.000,   5.307    
 Material CTF Summary,F08 METAL SURFACE,  0.0008,        45.280,   7824.000,      500.000,  0.1767E-04
 CTF,   3,     -0.36001017E-09,      0.48474703E-12,     -0.22061971E-08,      0.42112828E-18
 CTF,   2,      0.23532522    ,      0.34379438E-03,      0.31919894    ,     -0.63445960E-09
 CTF,   1,      -15.986175    ,      0.70694107E-01,      -3.8142812    ,      0.91794137E-01
 CTF,   0,       15.920099    ,      0.98211582E-01,       3.6643317    
 Construction CTF,BASEMENT_WALL_EAST_CFACTOR,  30,   2,   7,   0.250,     0.4185    ,   0.000,   0.900,   0.000,   0.700,MediumRough
 Material CTF Summary,~FC_Insulation_1,  0.0000,         0.000,      0.000,        0.000,   2.312    
 Material CTF Summary,~FC_Concrete,  0.1500,         1.950,   2240.000,      900.000,  0.7692E-01
 CTF,   7,     -0.33904107E-11,      0.76882797E-16,      0.31178075E-14,     -0.12084107E-16
 CTF,   6,      0.63273155E-07,      0.10564433E-08,      0.23481496E-04,     -0.13729183E-06
 CTF,   5,     -0.22230595E-04,      0.17154663E-05,     -0.80428699E-02,      0.49825175E-04
 CTF,   4,      0.20217735E-02,      0.19107532E-03,      0.66348268    ,     -0.46087048E-02
 CTF,   3,     -0.48649270E-01,      0.30386360E-02,      -13.140139    ,      0.11182035    
 CTF,   2,      0.32643623    ,      0.85346743E-02,       67.270252    ,     -0.75359029    
 CTF,   1,     -0.69457197    ,      0.39449074E-02,      -110.21961    ,       1.6084506    
 CTF,   0,      0.43063930    ,      0.14290938E-03,       55.449885    
 Construction CTF,BASEMENT_WALL_NORTH_CFACTOR,  31,   2,   7,   0.250,     0.4185    ,   0.000,   0.900,   0.000,   0.700,MediumRough
 Material CTF Summary,~FC_Insulation_2,  0.0000,         0.000,      0.000,        0.000,   2.312    
 Material CTF Summary,~FC_Concrete,  0.1500,         1.950,   2240.000,      900.000,  0.7692E-01
 CTF,   7,     -0.33904107E-11,      0.76882797E-16,      0.31178075E-14,     -0.12084107E-16
 CTF,   6,      0.63273155E-07,      0.10564433E-08,      0.23481496E-04,     -0.13729183E-06
 CTF,   5,     -0.22230595E-04,      0.17154663E-05,     -0.80428699E-02,      0.49825175E-04
 CTF,   4,      0.20217735E-02,      0.19107532E-03,      0.66348268    ,     -0.46087048E-02
 CTF,   3,     -0.48649270E-01,      0.30386360E-02,      -13.140139    ,      0.11182035    
 CTF,   2,      0.32643623    ,      0.85346743E-02,       67.270252    ,     -0.75359029    
 CTF,   1,     -0.69457197    ,      0.39449074E-02,      -110.21961    ,       1.6084506    
 CTF,   0,      0.43063930    ,      0.14290938E-03,       55.449885    
 Construction CTF,BASEMENT_WALL_SOUTH_CFACTOR,  32,   2,   7,   0.250,     0.4185    ,   0.000,   0.900,   0.000,   0.700,MediumRough
 Material CTF Summary,~FC_Insulation_3,  0.0000,         0.000,      0.000,        0.000,   2.312    
 Material CTF Summary,~FC_Concrete,  0.1500,         1.950,   2240.000,      900.000,  0.7692E-01
 CTF,   7,     -0.33904107E-11,      0.76882797E-16,      0.31178075E-14,     -0.12084107E-16
 CTF,   6,      0.63273155E-07,      0.10564433E-08,      0.23481496E-04,     -0.13729183E-06
 CTF,   5,     -0.22230595E-04,      0.17154663E-05,     -0.80428699E-02,      0.49825175E-04
 CTF,   4,      0.20217735E-02,      0.19107532E-03,      0.66348268    ,     -0.46087048E-02
 CTF,   3,     -0.48649270E-01,      0.30386360E-02,      -13.140139    ,      0.11182035    
 CTF,   2,      0.32643623    ,      0.85346743E-02,       67.270252    ,     -0.75359029    
 CTF,   1,     -0.69457197    ,      0.39449074E-02,      -110.21961    ,       1.6084506    
 CTF,   0,      0.43063930    ,      0.14290938E-03,       55.449885    
 Construction CTF,DATACENTER_BASEMENT_ZN_6_WALL_NORTH_CFACTOR,  33,   2,   7,   0.250,     0.4185    ,   0.000,   0.900,   0.000,   0.700,MediumRough
 Material CTF Summary,~FC_Insulation_4,  0.0000,         0.000,      0.000,        0.000,   2.312    
 Material CTF Summary,~FC_Concrete,  0.1500,         1.950,   2240.000,      900.000,  0.7692E-01
 CTF,   7,     -0.33904107E-11,      0.76882797E-16,      0.31178075E-14,     -0.12084107E-16
 CTF,   6,      0.63273155E-07,      0.10564433E-08,      0.23481496E-04,     -0.13729183E-06
 CTF,   5,     -0.22230595E-04,      0.17154663E-05,     -0.80428699E-02,      0.49825175E-04
 CTF,   4,      0.20217735E-02,      0.19107532E-03,      0.66348268    ,     -0.46087048E-02
 CTF,   3,     -0.48649270E-01,      0.30386360E-02,      -13.140139    ,      0.11182035    
 CTF,   2,      0.32643623    ,      0.85346743E-02,       67.270252    ,     -0.75359029    
 CTF,   1,     -0.69457197    ,      0.39449074E-02,      -110.21961    ,       1.6084506    
 CTF,   0,      0.43063930    ,      0.14290938E-03,       55.449885    
 Construction CTF,DATACENTER_BASEMENT_ZN_6_WALL_SOUTH_CFACTOR,  34,   2,   7,   0.250,     0.4185    ,   0.000,   0.900,   0.000,   0.700,MediumRough
 Material CTF Summary,~FC_Insulation_5,  0.0000,         0.000,      0.000,        0.000,   2.312    
 Material CTF Summary,~FC_Concrete,  0.1500,         1.950,   2240.000,      900.000,  0.7692E-01
 CTF,   7,     -0.33904107E-11,      0.76882797E-16,      0.31178075E-14,     -0.12084107E-16
 CTF,   6,      0.63273155E-07,      0.10564433E-08,      0.23481496E-04,     -0.13729183E-06
 CTF,   5,     -0.22230595E-04,      0.17154663E-05,     -0.80428699E-02,      0.49825175E-04
 CTF,   4,      0.20217735E-02,      0.19107532E-03,      0.66348268    ,     -0.46087048E-02
 CTF,   3,     -0.48649270E-01,      0.30386360E-02,      -13.140139    ,      0.11182035    
 CTF,   2,      0.32643623    ,      0.85346743E-02,       67.270252    ,     -0.75359029    
 CTF,   1,     -0.69457197    ,      0.39449074E-02,      -110.21961    ,       1.6084506    
 CTF,   0,      0.43063930    ,      0.14290938E-03,       55.449885    
 Construction CTF,DATACENTER_BASEMENT_ZN_6_WALL_WEST_CFACTOR,  35,   2,   7,   0.250,     0.4185    ,   0.000,   0.900,   0.000,   0.700,MediumRough
 Material CTF Summary,~FC_Insulation_6,  0.0000,         0.000,      0.000,        0.000,   2.312    
 Material CTF Summary,~FC_Concrete,  0.1500,         1.950,   2240.000,      900.000,  0.7692E-01
 CTF,   7,     -0.33904107E-11,      0.76882797E-16,      0.31178075E-14,     -0.12084107E-16
 CTF,   6,      0.63273155E-07,      0.10564433E-08,      0.23481496E-04,     -0.13729183E-06
 CTF,   5,     -0.22230595E-04,      0.17154663E-05,     -0.80428699E-02,      0.49825175E-04
 CTF,   4,      0.20217735E-02,      0.19107532E-03,      0.66348268    ,     -0.46087048E-02
 CTF,   3,     -0.48649270E-01,      0.30386360E-02,      -13.140139    ,      0.11182035    
 CTF,   2,      0.32643623    ,      0.85346743E-02,       67.270252    ,     -0.75359029    
 CTF,   1,     -0.69457197    ,      0.39449074E-02,      -110.21961    ,       1.6084506    
 CTF,   0,      0.43063930    ,      0.14290938E-03,       55.449885    
! <WindowConstruction>,Construction Name,Index,#Layers,Roughness,Conductance {W/m2-K},Conductance (Before Adjusted) {W/m2-K},Convection Coefficient Adjustment Ratio,SHGC,Solar Transmittance at Normal Incidence,Visible Transmittance at Normal Incidence
! <WindowMaterial:Glazing>, Material Name, Optical Data Type, Spectral Data Set Name, Thickness {m}, Solar Transmittance,Front Solar Reflectance, Back Solar Reflectance, Visible Transmittance, Front Visible Reflectance,Back Visible Reflectance,Infrared Transmittance, Front Thermal Emissivity, Back Thermal Emissivity,Conductivity {W/m-K},Dirt Factor,Solar Diffusing
 WindowConstruction,WINDOW_U_0.36_SHGC_0.38,7,1,VerySmooth,2.045,2.045,1.000,0.381
 WindowMaterial:Glazing,GLAZING LAYER,SpectralAverage,,3.65598E-002,0.29373,0.50072,0.50072,0.41800,0.13582,0.17513,0.00000,0.84000,0.84000,0.11562,1.00000,No
! <Shadowing/Sun Position Calculations Annual Simulations>, Shading Calculation Method, Shading Calculation Update Frequency Method, Shading Calculation Update Frequency {days}, Maximum Figures in Shadow Overlap Calculations {}, Polygon Clipping Algorithm, Pixel Counting Resolution, Sky Diffuse Modeling Algorithm, Output External Shading Calculation Results, Disable Self-Shading Within Shading Zone Groups, Disable Self-Shading From Shading Zone Groups to Other Zones
Shadowing/Sun Position Calculations Annual Simulations,PolygonClipping,Periodic,30,15000,SutherlandHodgman,512,SimpleSkyDiffuseModeling,No,No,No
! <Enclosure/Window Adjacency Daylighting Counts>, Enclosure Name, Number of Exterior Windows, Number of Exterior Windows in Adjacent Enclosures
Enclosure/Window Adjacency Daylighting Counts, PERIMETER_BOT_ZN_1,5,0
Enclosure/Window Adjacency Daylighting Counts, PERIMETER_BOT_ZN_2,3,0
Enclosure/Window Adjacency Daylighting Counts, PERIMETER_BOT_ZN_3,5,0
Enclosure/Window Adjacency Daylighting Counts, PERIMETER_BOT_ZN_4,3,0
Enclosure/Window Adjacency Daylighting Counts, PERIMETER_MID_ZN_1,1,0
Enclosure/Window Adjacency Daylighting Counts, PERIMETER_MID_ZN_2,1,0
Enclosure/Window Adjacency Daylighting Counts, PERIMETER_MID_ZN_3,1,0
Enclosure/Window Adjacency Daylighting Counts, PERIMETER_MID_ZN_4,1,0
Enclosure/Window Adjacency Daylighting Counts, PERIMETER_TOP_ZN_1,1,0
Enclosure/Window Adjacency Daylighting Counts, PERIMETER_TOP_ZN_2,1,0
Enclosure/Window Adjacency Daylighting Counts, PERIMETER_TOP_ZN_3,1,0
Enclosure/Window Adjacency Daylighting Counts, PERIMETER_TOP_ZN_4,1,0
! <Enclosure/Window Adjacency Daylighting Matrix>, Enclosure Name, Number of Adjacent Enclosures with Windows,Adjacent Enclosure Names - 1st 100 (max)
Enclosure/Window Adjacency Daylighting Matrix, PERIMETER_BOT_ZN_1,0
Enclosure/Window Adjacency Daylighting Matrix, PERIMETER_BOT_ZN_2,0
Enclosure/Window Adjacency Daylighting Matrix, PERIMETER_BOT_ZN_3,0
Enclosure/Window Adjacency Daylighting Matrix, PERIMETER_BOT_ZN_4,0
Enclosure/Window Adjacency Daylighting Matrix, PERIMETER_MID_ZN_1,0
Enclosure/Window Adjacency Daylighting Matrix, PERIMETER_MID_ZN_2,0
Enclosure/Window Adjacency Daylighting Matrix, PERIMETER_MID_ZN_3,0
Enclosure/Window Adjacency Daylighting Matrix, PERIMETER_MID_ZN_4,0
Enclosure/Window Adjacency Daylighting Matrix, PERIMETER_TOP_ZN_1,0
Enclosure/Window Adjacency Daylighting Matrix, PERIMETER_TOP_ZN_2,0
Enclosure/Window Adjacency Daylighting Matrix, PERIMETER_TOP_ZN_3,0
Enclosure/Window Adjacency Daylighting Matrix, PERIMETER_TOP_ZN_4,0
! <Water Heater Information>,Type,Name,Volume {m3},Maximum Capacity {W},Standard Rated Recovery Efficiency, Standard Rated Energy Factor
! <Surface Convection Parameters>, Surface Name, Outside Model Assignment, Outside Area [m2], Outside Perimeter [m], Outside Height [m], Inside Model Assignment, Inside Height [m], Inside Perimeter Envelope [m], Inside Hydraulic Diameter [m], Window Wall Ratio, Window Location, Near Radiant {Yes/No}, Has Active HVAC {Yes/No}
Surface Convection Parameters,BASEMENT_WALL_EAST,0,0.00,0.00,0.00,0,2.44,0.00,52.56,-999.00,0,No,No
Surface Convection Parameters,BASEMENT_WALL_NORTH,0,0.00,0.00,0.00,0,2.44,0.00,52.56,-999.00,0,No,No
Surface Convection Parameters,BASEMENT_WALL_SOUTH,0,0.00,0.00,0.00,0,2.44,0.00,52.56,-999.00,0,No,No
Surface Convection Parameters,BASEMENT_WALL_WEST,0,0.00,0.00,0.00,0,2.44,0.00,52.56,-999.00,0,No,No
Surface Convection Parameters,BASEMENT_FLOOR,0,0.00,0.00,0.00,0,2.44,0.00,52.56,-999.00,0,No,No
Surface Convection Parameters,CORE_BOT_ZN_5_FLOOR-PPAUTOCREATEOTHER,0,0.00,0.00,0.00,0,2.44,0.00,52.56,-999.00,0,No,No
Surface Convection Parameters,PERIMETER_BOT_ZN_1_FLOOR-PPAUTOCREATEOTHER,0,0.00,0.00,0.00,0,2.44,0.00,52.56,-999.00,0,No,No
Surface Convection Parameters,PERIMETER_BOT_ZN_2_FLOOR-PPAUTOCREATEOTHER,0,0.00,0.00,0.00,0,2.44,0.00,52.56,-999.00,0,No,No
Surface Convection Parameters,PERIMETER_BOT_ZN_3_FLOOR-PPAUTOCREATEOTHER,0,0.00,0.00,0.00,0,2.44,0.00,52.56,-999.00,0,No,No
Surface Convection Parameters,BASEMENT_INTERNALMASS_1,0,0.00,0.00,0.00,0,2.44,0.00,52.56,-999.00,0,No,No
Surface Convection Parameters,CORE_BOT_ZN_5_WALL_EAST,0,0.00,0.00,0.00,0,2.74,0.00,48.64,-999.00,0,No,No
Surface Convection Parameters,CORE_BOT_ZN_5_WALL_NORTH,0,0.00,0.00,0.00,0,2.74,0.00,48.64,-999.00,0,No,No
Surface Convection Parameters,CORE_BOT_ZN_5_WALL_SOUTH,0,0.00,0.00,0.00,0,2.74,0.00,48.64,-999.00,0,No,No
Surface Convection Parameters,CORE_BOT_ZN_5_WALL_WEST,0,0.00,0.00,0.00,0,2.74,0.00,48.64,-999.00,0,No,No
Surface Convection Parameters,CORE_BOT_ZN_5_FLOOR,0,0.00,0.00,0.00,0,2.74,0.00,48.64,-999.00,0,No,No
Surface Convection Parameters,DATACENTER_BASEMENT_ZN_6_CEILING-CORE_BOT_ZN_5-PPAUTOCREATEOTHER,0,0.00,0.00,0.00,0,2.74,0.00,48.64,-999.00,0,No,No
Surface Convection Parameters,CORE_BOT_ZN_5_CEILING,0,0.00,0.00,0.00,0,2.74,0.00,48.64,-999.00,0,No,No
Surface Convection Parameters,CORE_BOTTOM_INTERNALMASS_1,0,0.00,0.00,0.00,0,2.74,0.00,48.64,-999.00,0,No,No
Surface Convection Parameters,CORE_MID_ZN_5_WALL_EAST,0,0.00,0.00,0.00,0,2.74,0.00,48.64,-999.00,0,No,No
Surface Convection Parameters,CORE_MID_ZN_5_WALL_NORTH,0,0.00,0.00,0.00,0,2.74,0.00,48.64,-999.00,0,No,No
Surface Convection Parameters,CORE_MID_ZN_5_WALL_SOUTH,0,0.00,0.00,0.00,0,2.74,0.00,48.64,-999.00,0,No,No
Surface Convection Parameters,CORE_MID_ZN_5_WALL_WEST,0,0.00,0.00,0.00,0,2.74,0.00,48.64,-999.00,0,No,No
Surface Convection Parameters,CORE_MID_ZN_5_FLOOR,0,0.00,0.00,0.00,0,2.74,0.00,48.64,-999.00,0,No,No
Surface Convection Parameters,CORE_MID_ZN_5_CEILING,0,0.00,0.00,0.00,0,2.74,0.00,48.64,-999.00,0,No,No
Surface Convection Parameters,CORE_MID_INTERNALMASS_1,0,0.00,0.00,0.00,0,2.74,0.00,48.64,-999.00,0,No,No
Surface Convection Parameters,CORE_TOP_ZN_5_WALL_EAST,0,0.00,0.00,0.00,0,2.74,0.00,48.64,-999.00,0,No,No
Surface Convection Parameters,CORE_TOP_ZN_5_WALL_NORTH,0,0.00,0.00,0.00,0,2.74,0.00,48.64,-999.00,0,No,No
Surface Convection Parameters,CORE_TOP_ZN_5_WALL_SOUTH,0,0.00,0.00,0.00,0,2.74,0.00,48.64,-999.00,0,No,No
Surface Convection Parameters,CORE_TOP_ZN_5_WALL_WEST,0,0.00,0.00,0.00,0,2.74,0.00,48.64,-999.00,0,No,No
Surface Convection Parameters,CORE_TOP_ZN_5_FLOOR,0,0.00,0.00,0.00,0,2.74,0.00,48.64,-999.00,0,No,No
Surface Convection Parameters,CORE_TOP_ZN_5_CEILING,0,0.00,0.00,0.00,0,2.74,0.00,48.64,-999.00,0,No,No
Surface Convection Parameters,CORE_TOP_INTERNALMASS_1,0,0.00,0.00,0.00,0,2.74,0.00,48.64,-999.00,0,No,No
Surface Convection Parameters,DATACENTER_BASEMENT_ZN_6_WALL_EAST,0,0.00,0.00,0.00,0,2.44,0.00,24.18,-999.00,0,No,No
Surface Convection Parameters,DATACENTER_BASEMENT_ZN_6_WALL_NORTH,0,0.00,0.00,0.00,0,2.44,0.00,24.18,-999.00,0,No,No
Surface Convection Parameters,DATACENTER_BASEMENT_ZN_6_WALL_SOUTH,0,0.00,0.00,0.00,0,2.44,0.00,24.18,-999.00,0,No,No
Surface Convection Parameters,DATACENTER_BASEMENT_ZN_6_WALL_WEST,0,0.00,0.00,0.00,0,2.44,0.00,24.18,-999.00,0,No,No
Surface Convection Parameters,DATACENTER_BASEMENT_ZN_6_FLOOR,0,0.00,0.00,0.00,0,2.44,0.00,24.18,-999.00,0,No,No
Surface Convection Parameters,DATACENTER_BASEMENT_ZN_6_CEILING-CORE_BOT_ZN_5,0,0.00,0.00,0.00,0,2.44,0.00,24.18,-999.00,0,No,No
Surface Convection Parameters,DATACENTER_BASEMENT_ZN_6_CEILING-PERIMETER_BOT_ZN_1,0,0.00,0.00,0.00,0,2.44,0.00,24.18,-999.00,0,No,No
Surface Convection Parameters,DATACENTER_BASEMENT_ZN_6_CEILING-PERIMETER_BOT_ZN_3,0,0.00,0.00,0.00,0,2.44,0.00,24.18,-999.00,0,No,No
Surface Convection Parameters,DATACENTER_BOT_ZN_6_FLOOR-PPAUTOCREATEOTHER,0,0.00,0.00,0.00,0,2.44,0.00,24.18,-999.00,0,No,No
Surface Convection Parameters,PERIMETER_BOT_ZN_4_FLOOR-PPAUTOCREATEOTHER,0,0.00,0.00,0.00,0,2.44,0.00,24.18,-999.00,0,No,No
Surface Convection Parameters,DATACENTER_BOT_ZN_6_WALL_EAST-PPAUTOCREATEOTHER,0,0.00,0.00,0.00,0,2.74,0.00,1.79,-999.00,0,No,No
Surface Convection Parameters,DATACENTER_BOT_ZN_6_WALL_NORTH,0,0.00,0.00,0.00,0,2.74,0.00,1.79,-999.00,0,No,No
Surface Convection Parameters,DATACENTER_BOT_ZN_6_WALL_SOUTH,0,0.00,0.00,0.00,0,2.74,0.00,1.79,-999.00,0,No,No
Surface Convection Parameters,DATACENTER_BOT_ZN_6_WALL_WEST,0,0.00,0.00,0.00,0,2.74,0.00,1.79,-999.00,0,No,No
Surface Convection Parameters,DATACENTER_BOT_ZN_6_FLOOR,0,0.00,0.00,0.00,0,2.74,0.00,1.79,-999.00,0,No,No
Surface Convection Parameters,DATACENTER_BOT_ZN_6_CEILING,0,0.00,0.00,0.00,0,2.74,0.00,1.79,-999.00,0,No,No
Surface Convection Parameters,DATACENTER_MID_ZN_6_WALL_EAST,0,0.00,0.00,0.00,0,2.74,0.00,1.79,-999.00,0,No,No
Surface Convection Parameters,DATACENTER_MID_ZN_6_WALL_NORTH,0,0.00,0.00,0.00,0,2.74,0.00,1.79,-999.00,0,No,No
Surface Convection Parameters,DATACENTER_MID_ZN_6_WALL_SOUTH,0,0.00,0.00,0.00,0,2.74,0.00,1.79,-999.00,0,No,No
Surface Convection Parameters,DATACENTER_MID_ZN_6_WALL_WEST,0,0.00,0.00,0.00,0,2.74,0.00,1.79,-999.00,0,No,No
Surface Convection Parameters,DATACENTER_MID_ZN_6_FLOOR,0,0.00,0.00,0.00,0,2.74,0.00,1.79,-999.00,0,No,No
Surface Convection Parameters,DATACENTER_MID_ZN_6_CEILING,0,0.00,0.00,0.00,0,2.74,0.00,1.79,-999.00,0,No,No
Surface Convection Parameters,DATACENTER_TOP_ZN_6_WALL_EAST,0,0.00,0.00,0.00,0,2.74,0.00,1.79,-999.00,0,No,No
Surface Convection Parameters,DATACENTER_TOP_ZN_6_WALL_NORTH,0,0.00,0.00,0.00,0,2.74,0.00,1.79,-999.00,0,No,No
Surface Convection Parameters,DATACENTER_TOP_ZN_6_WALL_SOUTH,0,0.00,0.00,0.00,0,2.74,0.00,1.79,-999.00,0,No,No
Surface Convection Parameters,DATACENTER_TOP_ZN_6_WALL_WEST,0,0.00,0.00,0.00,0,2.74,0.00,1.79,-999.00,0,No,No
Surface Convection Parameters,DATACENTER_TOP_ZN_6_FLOOR,0,0.00,0.00,0.00,0,2.74,0.00,1.79,-999.00,0,No,No
Surface Convection Parameters,DATACENTER_TOP_ZN_6_CEILING,0,0.00,0.00,0.00,0,2.74,0.00,1.79,-999.00,0,No,No
Surface Convection Parameters,GROUNDFLOOR_PLENUM_WALL_EAST,0,579.48,250.73,37.50,0,1.22,243.69,58.49,0.00,0,No,No
Surface Convection Parameters,GROUNDFLOOR_PLENUM_WALL_NORTH,0,869.22,250.73,37.50,0,1.22,243.69,58.49,0.00,0,No,No
Surface Convection Parameters,GROUNDFLOOR_PLENUM_WALL_SOUTH,0,869.22,221.21,37.50,0,1.22,243.69,58.49,0.00,0,No,No
Surface Convection Parameters,GROUNDFLOOR_PLENUM_WEST,0,579.48,172.48,37.50,0,1.22,243.69,58.49,0.00,0,No,No
Surface Convection Parameters,iz-CORE_BOT_ZN_5_CEILING,0,0.00,0.00,0.00,0,1.22,243.69,58.49,0.00,0,No,No
Surface Convection Parameters,iz-DATACENTER_BOT_ZN_6_CEILING,0,0.00,0.00,0.00,0,1.22,243.69,58.49,0.00,0,No,No
Surface Convection Parameters,iz-PERIMETER_BOT_ZN_1_CEILING,0,0.00,0.00,0.00,0,1.22,243.69,58.49,0.00,0,No,No
Surface Convection Parameters,iz-PERIMETER_BOT_ZN_2_CEILING,0,0.00,0.00,0.00,0,1.22,243.69,58.49,0.00,0,No,No
Surface Convection Parameters,iz-PERIMETER_BOT_ZN_3_CEILING,0,0.00,0.00,0.00,0,1.22,243.69,58.49,0.00,0,No,No
Surface Convection Parameters,iz-PERIMETER_BOT_ZN_4_CEILING,0,0.00,0.00,0.00,0,1.22,243.69,58.49,0.00,0,No,No
Surface Convection Parameters,GROUNDFLOOR_PLENUM_CEILING,0,0.00,0.00,0.00,0,1.22,243.69,58.49,0.00,0,No,No
Surface Convection Parameters,MIDFLOOR_PLENUM_WALL_EAST,0,579.48,250.73,37.50,0,1.22,243.69,58.49,0.00,0,No,No
Surface Convection Parameters,MIDFLOOR_PLENUM_WALL_NORTH,0,869.22,250.73,37.50,0,1.22,243.69,58.49,0.00,0,No,No
Surface Convection Parameters,MIDFLOOR_PLENUM_WALL_SOUTH,0,869.22,221.21,37.50,0,1.22,243.69,58.49,0.00,0,No,No
Surface Convection Parameters,MIDFLOOR_PLENUM_WALL_WEST,0,579.48,172.48,37.50,0,1.22,243.69,58.49,0.00,0,No,No
Surface Convection Parameters,iz-CORE_MID_ZN_5_CEILING,0,0.00,0.00,0.00,0,1.22,243.69,58.49,0.00,0,No,No
Surface Convection Parameters,iz-DATACENTER_MID_ZN_6_CEILING,0,0.00,0.00,0.00,0,1.22,243.69,58.49,0.00,0,No,No
Surface Convection Parameters,iz-PERIMETER_MID_ZN_1_CEILING,0,0.00,0.00,0.00,0,1.22,243.69,58.49,0.00,0,No,No
Surface Convection Parameters,iz-PERIMETER_MID_ZN_2_CEILING,0,0.00,0.00,0.00,0,1.22,243.69,58.49,0.00,0,No,No
Surface Convection Parameters,iz-PERIMETER_MID_ZN_3_CEILING,0,0.00,0.00,0.00,0,1.22,243.69,58.49,0.00,0,No,No
Surface Convection Parameters,iz-PERIMETER_MID_ZN_4_CEILING,0,0.00,0.00,0.00,0,1.22,243.69,58.49,0.00,0,No,No
Surface Convection Parameters,MIDFLOOR_PLENUM_CEILING,0,0.00,0.00,0.00,0,1.22,243.69,58.49,0.00,0,No,No
Surface Convection Parameters,CORE_BOT_ZN_5_WALL_SOUTH-PPAUTOCREATEOTHER,0,0.00,0.00,0.00,0,2.74,73.11,8.07,0.58,0,No,No
Surface Convection Parameters,DATACENTER_BOT_ZN_6_WALL_SOUTH-PPAUTOCREATEOTHER,0,0.00,0.00,0.00,0,2.74,73.11,8.07,0.58,0,No,No
Surface Convection Parameters,PERIMETER_BOT_ZN_1_WALL_EAST,0,0.00,0.00,0.00,0,2.74,73.11,8.07,0.58,0,No,No
Surface Convection Parameters,PERIMETER_BOT_ZN_1_WALL_SOUTH,0,869.22,221.21,37.50,0,2.74,73.11,8.07,0.58,3,No,No
Surface Convection Parameters,PERIMETER_BOT_ZN_1_WALL_SOUTH_DOOR1,0,869.22,221.21,37.50,0,2.74,73.11,8.07,0.58,0,No,No
Surface Convection Parameters,PERIMETER_BOT_ZN_1_WALL_SOUTH_DOOR2,0,869.22,221.21,37.50,0,2.74,73.11,8.07,0.58,0,No,No
Surface Convection Parameters,PERIMETER_BOT_ZN_1_WALL_SOUTH_DOOR3,0,869.22,221.21,37.50,0,2.74,73.11,8.07,0.58,0,No,No
Surface Convection Parameters,PERIMETER_BOT_ZN_1_WALL_SOUTH_DOOR4,0,869.22,221.21,37.50,0,2.74,73.11,8.07,0.58,0,No,No
Surface Convection Parameters,PERIMETER_BOT_ZN_1_WALL_SOUTH_WINDOW1,0,869.22,221.21,37.50,0,2.74,73.11,8.07,0.58,5,No,No
Surface Convection Parameters,PERIMETER_BOT_ZN_1_WALL_SOUTH_WINDOW2,0,869.22,221.21,37.50,0,2.74,73.11,8.07,0.58,5,No,No
Surface Convection Parameters,PERIMETER_BOT_ZN_1_WALL_SOUTH_WINDOW3,0,869.22,221.21,37.50,0,2.74,73.11,8.07,0.58,5,No,No
Surface Convection Parameters,PERIMETER_BOT_ZN_1_WALL_SOUTH_WINDOW4,0,869.22,221.21,37.50,0,2.74,73.11,8.07,0.58,5,No,No
Surface Convection Parameters,PERIMETER_BOT_ZN_1_WALL_SOUTH_WINDOW5,0,869.22,221.21,37.50,0,2.74,73.11,8.07,0.58,5,No,No
Surface Convection Parameters,PERIMETER_BOT_ZN_4_WALL_SOUTH-PPAUTOCREATEOTHER,0,0.00,0.00,0.00,0,2.74,73.11,8.07,0.58,0,No,No
Surface Convection Parameters,DATACENTER_BASEMENT_ZN_6-PERIMETER_BOT_ZN_1-PPAUTOCREATEOTHER,0,0.00,0.00,0.00,0,2.74,73.11,8.07,0.58,0,No,No
Surface Convection Parameters,PERIMETER_BOT_ZN_1_FLOOR,0,0.00,0.00,0.00,0,2.74,73.11,8.07,0.58,0,No,No
Surface Convection Parameters,PERIMETER_BOT_ZN_1_CEILING,0,0.00,0.00,0.00,0,2.74,73.11,8.07,0.58,0,No,No
Surface Convection Parameters,PERIMETER_BOT_ZN_1_INTERNALMASS_1,0,0.00,0.00,0.00,0,2.74,73.11,8.07,0.58,0,No,No
Surface Convection Parameters,CORE_BOT_ZN_5_WALL_EAST-PPAUTOCREATEOTHER,0,0.00,0.00,0.00,0,2.74,48.74,7.58,0.58,0,No,No
Surface Convection Parameters,PERIMETER_BOT_ZN_1_WALL_EAST-PPAUTOCREATEOTHER,0,0.00,0.00,0.00,0,2.74,48.74,7.58,0.58,0,No,No
Surface Convection Parameters,PERIMETER_BOT_ZN_2_WALL_EAST,0,579.48,250.73,37.50,0,2.74,48.74,7.58,0.58,3,No,No
Surface Convection Parameters,PERIMETER_BOT_ZN_2_WALL_EAST_DOOR1,0,579.48,250.73,37.50,0,2.74,48.74,7.58,0.58,0,No,No
Surface Convection Parameters,PERIMETER_BOT_ZN_2_WALL_EAST_DOOR2,0,579.48,250.73,37.50,0,2.74,48.74,7.58,0.58,0,No,No
Surface Convection Parameters,PERIMETER_BOT_ZN_2_WALL_EAST_WINDOW1,0,579.48,250.73,37.50,0,2.74,48.74,7.58,0.58,5,No,No
Surface Convection Parameters,PERIMETER_BOT_ZN_2_WALL_EAST_WINDOW2,0,579.48,250.73,37.50,0,2.74,48.74,7.58,0.58,5,No,No
Surface Convection Parameters,PERIMETER_BOT_ZN_2_WALL_EAST_WINDOW3,0,579.48,250.73,37.50,0,2.74,48.74,7.58,0.58,5,No,No
Surface Convection Parameters,PERIMETER_BOT_ZN_2_WALL_NORTH,0,0.00,0.00,0.00,0,2.74,48.74,7.58,0.58,0,No,No
Surface Convection Parameters,PERIMETER_BOT_ZN_2_FLOOR,0,0.00,0.00,0.00,0,2.74,48.74,7.58,0.58,0,No,No
Surface Convection Parameters,PERIMETER_BOT_ZN_2_CEILING,0,0.00,0.00,0.00,0,2.74,48.74,7.58,0.58,0,No,No
Surface Convection Parameters,PERIMETER_BOT_ZN_2_INTERNALMASS_1,0,0.00,0.00,0.00,0,2.74,48.74,7.58,0.58,0,No,No
Surface Convection Parameters,CORE_BOT_ZN_5_WALL_NORTH-PPAUTOCREATEOTHER,0,0.00,0.00,0.00,0,2.74,73.11,8.07,0.58,0,No,No
Surface Convection Parameters,DATACENTER_BOT_ZN_6_WALL_NORTH-PPAUTOCREATEOTHER,0,0.00,0.00,0.00,0,2.74,73.11,8.07,0.58,0,No,No
Surface Convection Parameters,PERIMETER_BOT_ZN_2_WALL_NORTH-PPAUTOCREATEOTHER,0,0.00,0.00,0.00,0,2.74,73.11,8.07,0.58,0,No,No
Surface Convection Parameters,PERIMETER_BOT_ZN_3_WALL_NORTH,0,869.22,250.73,37.50,0,2.74,73.11,8.07,0.58,3,No,No
Surface Convection Parameters,PERIMETER_BOT_ZN_3_WALL_NORTH_DOOR1,0,869.22,250.73,37.50,0,2.74,73.11,8.07,0.58,0,No,No
Surface Convection Parameters,PERIMETER_BOT_ZN_3_WALL_NORTH_DOOR2,0,869.22,250.73,37.50,0,2.74,73.11,8.07,0.58,0,No,No
Surface Convection Parameters,PERIMETER_BOT_ZN_3_WALL_NORTH_DOOR3,0,869.22,250.73,37.50,0,2.74,73.11,8.07,0.58,0,No,No
Surface Convection Parameters,PERIMETER_BOT_ZN_3_WALL_NORTH_DOOR4,0,869.22,250.73,37.50,0,2.74,73.11,8.07,0.58,0,No,No
Surface Convection Parameters,PERIMETER_BOT_ZN_3_WALL_NORTH_WINDOW1,0,869.22,250.73,37.50,0,2.74,73.11,8.07,0.58,5,No,No
Surface Convection Parameters,PERIMETER_BOT_ZN_3_WALL_NORTH_WINDOW2,0,869.22,250.73,37.50,0,2.74,73.11,8.07,0.58,5,No,No
Surface Convection Parameters,PERIMETER_BOT_ZN_3_WALL_NORTH_WINDOW3,0,869.22,250.73,37.50,0,2.74,73.11,8.07,0.58,5,No,No
Surface Convection Parameters,PERIMETER_BOT_ZN_3_WALL_NORTH_WINDOW4,0,869.22,250.73,37.50,0,2.74,73.11,8.07,0.58,5,No,No
Surface Convection Parameters,PERIMETER_BOT_ZN_3_WALL_NORTH_WINDOW5,0,869.22,250.73,37.50,0,2.74,73.11,8.07,0.58,5,No,No
Surface Convection Parameters,PERIMETER_BOT_ZN_3_WALL_WEST,0,0.00,0.00,0.00,0,2.74,73.11,8.07,0.58,0,No,No
Surface Convection Parameters,DATACENTER_BASEMENT_ZN_6_CEILING-PERIMETER_BOT_ZN_3-PPAUTOCREATEOTHER,0,0.00,0.00,0.00,0,2.74,73.11,8.07,0.58,0,No,No
Surface Convection Parameters,PERIMETER_BOT_ZN_3_FLOOR,0,0.00,0.00,0.00,0,2.74,73.11,8.07,0.58,0,No,No
Surface Convection Parameters,PERIMETER_BOT_ZN_3_CEILING,0,0.00,0.00,0.00,0,2.74,73.11,8.07,0.58,0,No,No
Surface Convection Parameters,PERIMETER_BOT_ZN_3_INTERNALMASS_1,0,0.00,0.00,0.00,0,2.74,73.11,8.07,0.58,0,No,No
Surface Convection Parameters,DATACENTER_BOT_ZN_6_WALL_WEST-PPAUTOCREATEOTHER,0,0.00,0.00,0.00,0,2.74,48.74,7.58,0.58,0,No,No
Surface Convection Parameters,PERIMETER_BOT_ZN_3_WALL_WEST-PPAUTOCREATEOTHER,0,0.00,0.00,0.00,0,2.74,48.74,7.58,0.58,0,No,No
Surface Convection Parameters,PERIMETER_BOT_ZN_4_WALL_SOUTH,0,0.00,0.00,0.00,0,2.74,48.74,7.58,0.58,0,No,No
Surface Convection Parameters,PERIMETER_BOT_ZN_4_WALL_WEST,0,579.48,172.48,37.50,0,2.74,48.74,7.58,0.58,3,No,No
Surface Convection Parameters,PERIMETER_BOT_ZN_4_WALL_WEST_DOOR1,0,579.48,172.48,37.50,0,2.74,48.74,7.58,0.58,0,No,No
Surface Convection Parameters,PERIMETER_BOT_ZN_4_WALL_WEST_DOOR2,0,579.48,172.48,37.50,0,2.74,48.74,7.58,0.58,0,No,No
Surface Convection Parameters,PERIMETER_BOT_ZN_4_WALL_WEST_WINDOW1,0,579.48,172.48,37.50,0,2.74,48.74,7.58,0.58,5,No,No
Surface Convection Parameters,PERIMETER_BOT_ZN_4_WALL_WEST_WINDOW2,0,579.48,172.48,37.50,0,2.74,48.74,7.58,0.58,5,No,No
Surface Convection Parameters,PERIMETER_BOT_ZN_4_WALL_WEST_WINDOW3,0,579.48,172.48,37.50,0,2.74,48.74,7.58,0.58,5,No,No
Surface Convection Parameters,PERIMETER_BOT_ZN_4_FLOOR,0,0.00,0.00,0.00,0,2.74,48.74,7.58,0.58,0,No,No
Surface Convection Parameters,PERIMETER_BOT_ZN_4_CEILING,0,0.00,0.00,0.00,0,2.74,48.74,7.58,0.58,0,No,No
Surface Convection Parameters,PERIMETER_BOT_ZN_4_INTERNALMASS_1,0,0.00,0.00,0.00,0,2.74,48.74,7.58,0.58,0,No,No
Surface Convection Parameters,CORE_MID_ZN_5_WALL_SOUTH-PPAUTOCREATEOTHER,0,0.00,0.00,0.00,0,2.74,73.11,8.07,0.58,0,No,No
Surface Convection Parameters,DATACENTER_MID_ZN_6_WALL_SOUTH-PPAUTOCREATEOTHER,0,0.00,0.00,0.00,0,2.74,73.11,8.07,0.58,0,No,No
Surface Convection Parameters,PERIMETER_MID_ZN_1_WALL_EAST,0,0.00,0.00,0.00,0,2.74,73.11,8.07,0.58,0,No,No
Surface Convection Parameters,PERIMETER_MID_ZN_1_WALL_SOUTH,0,869.22,221.21,37.50,0,2.74,73.11,8.07,0.58,3,No,No
Surface Convection Parameters,PERIMETER_MID_ZN_1_WALL_SOUTH_WINDOW,0,869.22,221.21,37.50,0,2.74,73.11,8.07,0.58,5,No,No
Surface Convection Parameters,PERIMETER_MID_ZN_4_WALL_SOUTH-PPAUTOCREATEOTHER,0,0.00,0.00,0.00,0,2.74,73.11,8.07,0.58,0,No,No
Surface Convection Parameters,PERIMETER_MID_ZN_1_FLOOR,0,0.00,0.00,0.00,0,2.74,73.11,8.07,0.58,0,No,No
Surface Convection Parameters,PERIMETER_MID_ZN_1_CEILING,0,0.00,0.00,0.00,0,2.74,73.11,8.07,0.58,0,No,No
Surface Convection Parameters,PERIMETER_MID_ZN_1_INTERNALMASS_1,0,0.00,0.00,0.00,0,2.74,73.11,8.07,0.58,0,No,No
Surface Convection Parameters,CORE_MID_ZN_5_WALL_EAST-PPAUTOCREATEOTHER,0,0.00,0.00,0.00,0,2.74,48.74,7.58,0.58,0,No,No
Surface Convection Parameters,PERIMETER_MID_ZN_1_WALL_EAST-PPAUTOCREATEOTHER,0,0.00,0.00,0.00,0,2.74,48.74,7.58,0.58,0,No,No
Surface Convection Parameters,PERIMETER_MID_ZN_2_WALL_EAST,0,579.48,250.73,37.50,0,2.74,48.74,7.58,0.58,3,No,No
Surface Convection Parameters,PERIMETER_MID_ZN_2_WALL_EAST_WINDOW,0,579.48,250.73,37.50,0,2.74,48.74,7.58,0.58,5,No,No
Surface Convection Parameters,PERIMETER_MID_ZN_2_WALL_NORTH,0,0.00,0.00,0.00,0,2.74,48.74,7.58,0.58,0,No,No
Surface Convection Parameters,PERIMETER_MID_ZN_2_FLOOR,0,0.00,0.00,0.00,0,2.74,48.74,7.58,0.58,0,No,No
Surface Convection Parameters,PERIMETER_MID_ZN_2_CEILING,0,0.00,0.00,0.00,0,2.74,48.74,7.58,0.58,0,No,No
Surface Convection Parameters,PERIMETER_MID_ZN_2_INTERNALMASS_1,0,0.00,0.00,0.00,0,2.74,48.74,7.58,0.58,0,No,No
Surface Convection Parameters,CORE_MID_ZN_5_WALL_NORTH-PPAUTOCREATEOTHER,0,0.00,0.00,0.00,0,2.74,73.11,8.07,0.58,0,No,No
Surface Convection Parameters,DATACENTER_MID_ZN_6_WALL_NORTH-PPAUTOCREATEOTHER,0,0.00,0.00,0.00,0,2.74,73.11,8.07,0.58,0,No,No
Surface Convection Parameters,PERIMETER_MID_ZN_2_WALL_NORTH-PPAUTOCREATEOTHER,0,0.00,0.00,0.00,0,2.74,73.11,8.07,0.58,0,No,No
Surface Convection Parameters,PERIMETER_MID_ZN_3_WALL_NORTH,0,869.22,250.73,37.50,0,2.74,73.11,8.07,0.58,3,No,No
Surface Convection Parameters,PERIMETER_MID_ZN_3_WALL_NORTH_WINDOW,0,869.22,250.73,37.50,0,2.74,73.11,8.07,0.58,5,No,No
Surface Convection Parameters,PERIMETER_MID_ZN_3_WALL_WEST,0,0.00,0.00,0.00,0,2.74,73.11,8.07,0.58,0,No,No
Surface Convection Parameters,PERIMETER_MID_ZN_3_FLOOR,0,0.00,0.00,0.00,0,2.74,73.11,8.07,0.58,0,No,No
Surface Convection Parameters,PERIMETER_MID_ZN_3_CEILING,0,0.00,0.00,0.00,0,2.74,73.11,8.07,0.58,0,No,No
Surface Convection Parameters,PERIMETER_MID_ZN_3_INTERNALMASS_1,0,0.00,0.00,0.00,0,2.74,73.11,8.07,0.58,0,No,No
Surface Convection Parameters,DATACENTER_MID_ZN_6_WALL_WEST-PPAUTOCREATEOTHER,0,0.00,0.00,0.00,0,2.74,48.74,7.58,0.58,0,No,No
Surface Convection Parameters,PERIMETER_MID_ZN_3_WALL_WEST-PPAUTOCREATEOTHER,0,0.00,0.00,0.00,0,2.74,48.74,7.58,0.58,0,No,No
Surface Convection Parameters,PERIMETER_MID_ZN_4_WALL_SOUTH,0,0.00,0.00,0.00,0,2.74,48.74,7.58,0.58,0,No,No
Surface Convection Parameters,PERIMETER_MID_ZN_4_WALL_WEST,0,579.48,172.48,37.50,0,2.74,48.74,7.58,0.58,3,No,No
Surface Convection Parameters,PERIMETER_MID_ZN_4_WALL_WEST_WINDOW,0,579.48,172.48,37.50,0,2.74,48.74,7.58,0.58,5,No,No
Surface Convection Parameters,PERIMETER_MID_ZN_4_FLOOR,0,0.00,0.00,0.00,0,2.74,48.74,7.58,0.58,0,No,No
Surface Convection Parameters,PERIMETER_MID_ZN_4_CEILING,0,0.00,0.00,0.00,0,2.74,48.74,7.58,0.58,0,No,No
Surface Convection Parameters,PERIMETER_MID_ZN_4_INTERNALMASS_1,0,0.00,0.00,0.00,0,2.74,48.74,7.58,0.58,0,No,No
Surface Convection Parameters,CORE_TOP_ZN_5_WALL_SOUTH-PPAUTOCREATEOTHER,0,0.00,0.00,0.00,0,2.74,73.11,8.07,0.58,0,No,No
Surface Convection Parameters,DATACENTER_TOP_ZN_6_WALL_SOUTH-PPAUTOCREATEOTHER,0,0.00,0.00,0.00,0,2.74,73.11,8.07,0.58,0,No,No
Surface Convection Parameters,INT-PER3S-NE,0,0.00,0.00,0.00,0,2.74,73.11,8.07,0.58,0,No,No
Surface Convection Parameters,PERIMETER_TOP_ZN_1_WALL_SOUTH,0,869.22,221.21,37.50,0,2.74,73.11,8.07,0.58,3,No,No
Surface Convection Parameters,PERIMETER_TOP_ZN_1_WALL_SOUTH_WINDOW,0,869.22,221.21,37.50,0,2.74,73.11,8.07,0.58,5,No,No
Surface Convection Parameters,PERIMETER_TOP_ZN_4_WALL_SOUTH-PPAUTOCREATEOTHER,0,0.00,0.00,0.00,0,2.74,73.11,8.07,0.58,0,No,No
Surface Convection Parameters,PERIMETER_TOP_ZN_1_FLOOR,0,0.00,0.00,0.00,0,2.74,73.11,8.07,0.58,0,No,No
Surface Convection Parameters,PERIMETER_TOP_ZN_1_CEILING,0,0.00,0.00,0.00,0,2.74,73.11,8.07,0.58,0,No,No
Surface Convection Parameters,PERIMETER_TOP_ZN_1_INTERNALMASS_1,0,0.00,0.00,0.00,0,2.74,73.11,8.07,0.58,0,No,No
Surface Convection Parameters,CORE_TOP_ZN_5_WALL_EAST-PPAUTOCREATEOTHER,0,0.00,0.00,0.00,0,2.74,48.74,7.58,0.58,0,No,No
Surface Convection Parameters,INT-PER3S-NE-PPAUTOCREATEOTHER,0,0.00,0.00,0.00,0,2.74,48.74,7.58,0.58,0,No,No
Surface Convection Parameters,PERIMETER_TOP_ZN_2_WALL_EAST,0,579.48,250.73,37.50,0,2.74,48.74,7.58,0.58,3,No,No
Surface Convection Parameters,PERIMETER_TOP_ZN_2_WALL_EAST_WINDOW,0,579.48,250.73,37.50,0,2.74,48.74,7.58,0.58,5,No,No
Surface Convection Parameters,PERIMETER_TOP_ZN_2_WALL_NORTH,0,0.00,0.00,0.00,0,2.74,48.74,7.58,0.58,0,No,No
Surface Convection Parameters,PERIMETER_TOP_ZN_2_FLOOR,0,0.00,0.00,0.00,0,2.74,48.74,7.58,0.58,0,No,No
Surface Convection Parameters,PERIMETER_TOP_ZN_2_CEILING,0,0.00,0.00,0.00,0,2.74,48.74,7.58,0.58,0,No,No
Surface Convection Parameters,PERIMETER_TOP_ZN_2_INTERNALMASS_1,0,0.00,0.00,0.00,0,2.74,48.74,7.58,0.58,0,No,No
Surface Convection Parameters,CORE_TOP_ZN_5_WALL_NORTH-PPAUTOCREATEOTHER,0,0.00,0.00,0.00,0,2.74,73.11,8.07,0.58,0,No,No
Surface Convection Parameters,DATACENTER_TOP_ZN_6_WALL_NORTH-PPAUTOCREATEOTHER,0,0.00,0.00,0.00,0,2.74,73.11,8.07,0.58,0,No,No
Surface Convection Parameters,PERIMETER_TOP_ZN_2_WALL_NORTH-PPAUTOCREATEOTHER,0,0.00,0.00,0.00,0,2.74,73.11,8.07,0.58,0,No,No
Surface Convection Parameters,PERIMETER_TOP_ZN_3_WALL_NORTH,0,869.22,250.73,37.50,0,2.74,73.11,8.07,0.58,3,No,No
Surface Convection Parameters,PERIMETER_TOP_ZN_3_WALL_NORTH_WINDOW,0,869.22,250.73,37.50,0,2.74,73.11,8.07,0.58,5,No,No
Surface Convection Parameters,PERIMETER_TOP_ZN_3_WALL_WEST,0,0.00,0.00,0.00,0,2.74,73.11,8.07,0.58,0,No,No
Surface Convection Parameters,PERIMETER_TOP_ZN_3_FLOOR,0,0.00,0.00,0.00,0,2.74,73.11,8.07,0.58,0,No,No
Surface Convection Parameters,PERIMETER_TOP_ZN_3_CEILING,0,0.00,0.00,0.00,0,2.74,73.11,8.07,0.58,0,No,No
Surface Convection Parameters,PERIMETER_TOP_ZN_3_INTERNALMASS_1,0,0.00,0.00,0.00,0,2.74,73.11,8.07,0.58,0,No,No
Surface Convection Parameters,DATACENTER_TOP_ZN_6_WALL_WEST-PPAUTOCREATEOTHER,0,0.00,0.00,0.00,0,2.74,48.74,7.58,0.58,0,No,No
Surface Convection Parameters,PERIMETER_TOP_ZN_3_WALL_WEST-PPAUTOCREATEOTHER,0,0.00,0.00,0.00,0,2.74,48.74,7.58,0.58,0,No,No
Surface Convection Parameters,PERIMETER_TOP_ZN_4_WALL_SOUTH,0,0.00,0.00,0.00,0,2.74,48.74,7.58,0.58,0,No,No
Surface Convection Parameters,PERIMETER_TOP_ZN_4_WALL_WEST,0,579.48,172.48,37.50,0,2.74,48.74,7.58,0.58,3,No,No
Surface Convection Parameters,PERIMETER_TOP_ZN_4_WALL_WEST_WINDOW,0,579.48,172.48,37.50,0,2.74,48.74,7.58,0.58,5,No,No
Surface Convection Parameters,PERIMETER_TOP_ZN_4_FLOOR,0,0.00,0.00,0.00,0,2.74,48.74,7.58,0.58,0,No,No
Surface Convection Parameters,PERIMETER_TOP_ZN_4_CEILING,0,0.00,0.00,0.00,0,2.74,48.74,7.58,0.58,0,No,No
Surface Convection Parameters,PERIMETER_TOP_ZN_4_INTERNALMASS_1,0,0.00,0.00,0.00,0,2.74,48.74,7.58,0.58,0,No,No
Surface Convection Parameters,TOPFLOOR_PLENUM_WALL_EAST,0,579.48,250.73,37.50,0,1.22,243.69,58.49,0.00,0,No,No
Surface Convection Parameters,TOPFLOOR_PLENUM_WALL_NORTH,0,869.22,221.21,37.50,0,1.22,243.69,58.49,0.00,0,No,No
Surface Convection Parameters,TOPFLOOR_PLENUM_WALL_SOUTH,0,869.22,250.73,37.50,0,1.22,243.69,58.49,0.00,0,No,No
Surface Convection Parameters,TOPFLOOR_PLENUM_WALL_WEST,0,579.48,172.48,37.50,0,1.22,243.69,58.49,0.00,0,No,No
Surface Convection Parameters,iz-CORE_TOP_ZN_5_CEILING,0,0.00,0.00,0.00,0,1.22,243.69,58.49,0.00,0,No,No
Surface Convection Parameters,iz-DATACENTER_TOP_ZN_6_CEILING,0,0.00,0.00,0.00,0,1.22,243.69,58.49,0.00,0,No,No
Surface Convection Parameters,iz-PERIMETER_TOP_ZN_1_CEILING,0,0.00,0.00,0.00,0,1.22,243.69,58.49,0.00,0,No,No
Surface Convection Parameters,iz-PERIMETER_TOP_ZN_2_CEILING,0,0.00,0.00,0.00,0,1.22,243.69,58.49,0.00,0,No,No
Surface Convection Parameters,iz-PERIMETER_TOP_ZN_3_CEILING,0,0.00,0.00,0.00,0,1.22,243.69,58.49,0.00,0,No,No
Surface Convection Parameters,iz-PERIMETER_TOP_ZN_4_CEILING,0,0.00,0.00,0.00,0,1.22,243.69,58.49,0.00,0,No,No
Surface Convection Parameters,BUILDING_ROOF,0,3563.11,243.69,0.00,0,1.22,243.69,58.49,0.00,0,No,No
! <ZoneInfiltration Airflow Stats Nominal>,Name,Schedule Name,Zone Name, Zone Floor Area {m2}, # Zone Occupants,Design Volume Flow Rate {m3/s},Volume Flow Rate/Floor Area {m3/s-m2},Volume Flow Rate/Exterior Surface Area {m3/s-m2},ACH - Air Changes per Hour,Equation A - Constant Term Coefficient {},Equation B - Temperature Term Coefficient {1/C},Equation C - Velocity Term Coefficient {s/m}, Equation D - Velocity Squared Term Coefficient {s2/m2}
 ZoneInfiltration Airflow Stats Nominal, GROUNDFLOOR_PLENUM_INFILTRATION,INFIL_SCH_PNNL,GROUNDFLOOR_PLENUM,3563.11,0.0,0.169,4.744E-005,5.690E-004,0.140,0.000,0.000,0.224,0.000
 ZoneInfiltration Airflow Stats Nominal, MIDFLOOR_PLENUM_INFILTRATION,INFIL_SCH_PNNL,MIDFLOOR_PLENUM,3563.11,0.0,0.169,4.744E-005,5.690E-004,0.140,0.000,0.000,0.224,0.000
 ZoneInfiltration Airflow Stats Nominal, PERIMETER_BOT_ZN_1_INFILTRATION,INFIL_SCH_PNNL,PERIMETER_BOT_ZN_1,313.42,16.9,0.119,3.783E-004,5.690E-004,0.496,0.000,0.000,0.224,0.000
 ZoneInfiltration Airflow Stats Nominal, PERIMETER_BOT_ZN_2_INFILTRATION,INFIL_SCH_PNNL,PERIMETER_BOT_ZN_2,201.98,10.9,7.831E-002,3.877E-004,5.690E-004,0.509,0.000,0.000,0.224,0.000
 ZoneInfiltration Airflow Stats Nominal, PERIMETER_BOT_ZN_3_INFILTRATION,INFIL_SCH_PNNL,PERIMETER_BOT_ZN_3,313.41,16.9,0.119,3.783E-004,5.690E-004,0.496,0.000,0.000,0.224,0.000
 ZoneInfiltration Airflow Stats Nominal, PERIMETER_BOT_ZN_4_INFILTRATION,INFIL_SCH_PNNL,PERIMETER_BOT_ZN_4,201.98,10.9,7.831E-002,3.877E-004,5.690E-004,0.509,0.000,0.000,0.224,0.000
 ZoneInfiltration Airflow Stats Nominal, PERIMETER_MID_ZN_1_INFILTRATION,INFIL_SCH_PNNL,PERIMETER_MID_ZN_1,313.42,16.9,0.114,3.642E-004,5.690E-004,0.478,0.000,0.000,0.224,0.000
 ZoneInfiltration Airflow Stats Nominal, PERIMETER_MID_ZN_2_INFILTRATION,INFIL_SCH_PNNL,PERIMETER_MID_ZN_2,201.98,10.9,7.609E-002,3.767E-004,5.690E-004,0.494,0.000,0.000,0.224,0.000
 ZoneInfiltration Airflow Stats Nominal, PERIMETER_MID_ZN_3_INFILTRATION,INFIL_SCH_PNNL,PERIMETER_MID_ZN_3,313.41,16.9,0.114,3.642E-004,5.690E-004,0.478,0.000,0.000,0.224,0.000
 ZoneInfiltration Airflow Stats Nominal, PERIMETER_MID_ZN_4_INFILTRATION,INFIL_SCH_PNNL,PERIMETER_MID_ZN_4,201.98,10.9,7.609E-002,3.767E-004,5.690E-004,0.494,0.000,0.000,0.224,0.000
 ZoneInfiltration Airflow Stats Nominal, PERIMETER_TOP_ZN_1_INFILTRATION,INFIL_SCH_PNNL,PERIMETER_TOP_ZN_1,313.42,16.9,0.114,3.642E-004,5.690E-004,0.478,0.000,0.000,0.224,0.000
 ZoneInfiltration Airflow Stats Nominal, PERIMETER_TOP_ZN_2_INFILTRATION,INFIL_SCH_PNNL,PERIMETER_TOP_ZN_2,201.98,10.9,7.609E-002,3.767E-004,5.690E-004,0.494,0.000,0.000,0.224,0.000
 ZoneInfiltration Airflow Stats Nominal, PERIMETER_TOP_ZN_3_INFILTRATION,INFIL_SCH_PNNL,PERIMETER_TOP_ZN_3,313.41,16.9,0.114,3.642E-004,5.690E-004,0.478,0.000,0.000,0.224,0.000
 ZoneInfiltration Airflow Stats Nominal, PERIMETER_TOP_ZN_4_INFILTRATION,INFIL_SCH_PNNL,PERIMETER_TOP_ZN_4,201.98,10.9,7.609E-002,3.767E-004,5.690E-004,0.494,0.000,0.000,0.224,0.000
 ZoneInfiltration Airflow Stats Nominal, TOPFLOOR_PLENUM_INFILTRATION,INFIL_SCH_PNNL,TOPFLOOR_PLENUM,3563.11,0.0,0.169,4.741E-005,4.376E-005,0.140,0.000,0.000,0.224,0.000
! <AirFlow Model>, Simple
 AirFlow Model, Simple
! <RoomAir Model>, Zone Name, Mixing/Mundt/UCSDDV/UCSDCV/UCSDUFI/UCSDUFE/User Defined
RoomAir Model,BASEMENT,Mixing/Well-Stirred
RoomAir Model,CORE_BOTTOM,Mixing/Well-Stirred
RoomAir Model,CORE_MID,Mixing/Well-Stirred
RoomAir Model,CORE_TOP,Mixing/Well-Stirred
RoomAir Model,DATACENTER_BASEMENT_ZN_6,Mixing/Well-Stirred
RoomAir Model,DATACENTER_BOT_ZN_6,Mixing/Well-Stirred
RoomAir Model,DATACENTER_MID_ZN_6,Mixing/Well-Stirred
RoomAir Model,DATACENTER_TOP_ZN_6,Mixing/Well-Stirred
RoomAir Model,GROUNDFLOOR_PLENUM,Mixing/Well-Stirred
RoomAir Model,MIDFLOOR_PLENUM,Mixing/Well-Stirred
RoomAir Model,PERIMETER_BOT_ZN_1,Mixing/Well-Stirred
RoomAir Model,PERIMETER_BOT_ZN_2,Mixing/Well-Stirred
RoomAir Model,PERIMETER_BOT_ZN_3,Mixing/Well-Stirred
RoomAir Model,PERIMETER_BOT_ZN_4,Mixing/Well-Stirred
RoomAir Model,PERIMETER_MID_ZN_1,Mixing/Well-Stirred
RoomAir Model,PERIMETER_MID_ZN_2,Mixing/Well-Stirred
RoomAir Model,PERIMETER_MID_ZN_3,Mixing/Well-Stirred
RoomAir Model,PERIMETER_MID_ZN_4,Mixing/Well-Stirred
RoomAir Model,PERIMETER_TOP_ZN_1,Mixing/Well-Stirred
RoomAir Model,PERIMETER_TOP_ZN_2,Mixing/Well-Stirred
RoomAir Model,PERIMETER_TOP_ZN_3,Mixing/Well-Stirred
RoomAir Model,PERIMETER_TOP_ZN_4,Mixing/Well-Stirred
RoomAir Model,TOPFLOOR_PLENUM,Mixing/Well-Stirred
! <AirflowNetwork Model:Control>, No Multizone or Distribution/Multizone with Distribution/Multizone without Distribution/Multizone with Distribution only during Fan Operation
AirflowNetwork Model:Control,NoMultizoneOrDistribution
! <Zone Volume Capacitance Multiplier>, Sensible Heat Capacity Multiplier, Moisture Capacity Multiplier, Carbon Dioxide Capacity Multiplier, Generic Contaminant Capacity Multiplier
Zone Volume Capacitance Multiplier,   1.000 ,   1.000,   1.000,   1.000
! <Zone Surfaces>,Zone Name,# Surfaces
! <Shading Surfaces>,Number of Shading Surfaces,# Surfaces
! <HeatTransfer Surface>,Surface Name,Surface Class,Base Surface,Heat Transfer Algorithm,Construction,Nominal U (w/o film coefs) {W/m2-K},Nominal U (with film coefs) {W/m2-K},Solar Diffusing,Area (Net) {m2},Area (Gross) {m2},Area (Sunlit Calc) {m2},Azimuth {deg},Tilt {deg},~Width {m},~Height {m},Reveal {m},ExtBoundCondition,ExtConvCoeffCalc,IntConvCoeffCalc,SunExposure,WindExposure,ViewFactorToGround,ViewFactorToSky,ViewFactorToGround-IR,ViewFactorToSky-IR,#Sides
! <Shading Surface>,Surface Name,Surface Class,Base Surface,Heat Transfer Algorithm,Transmittance Schedule,Min Schedule Value,Max Schedule Value,Solar Diffusing,Area (Net) {m2},Area (Gross) {m2},Area (Sunlit Calc) {m2},Azimuth {deg},Tilt {deg},~Width {m},~Height {m},Reveal {m},ExtBoundCondition,ExtConvCoeffCalc,IntConvCoeffCalc,SunExposure,WindExposure,ViewFactorToGround,ViewFactorToSky,ViewFactorToGround-IR,ViewFactorToSky-IR,#Sides
! <Frame/Divider Surface>,Surface Name,Surface Class,Base Surface,Heat Transfer Algorithm,Construction,Nominal U (w/o film coefs) {W/m2-K},Nominal U (with film coefs) {W/m2-K},Solar Diffusing,Area (Net) {m2},Area (Gross) {m2},Area (Sunlit Calc) {m2},Azimuth {deg},Tilt {deg},~Width {m},~Height {m},Reveal {m}
Zone Surfaces,BASEMENT,10
HeatTransfer Surface,BASEMENT_WALL_EAST,Wall,,CTF - ConductionTransferFunction,BASEMENT_WALL_EAST_CFACTOR,0.419,0.394,,118.87,118.87,118.87,90.00,90.00,48.74,2.44,0.00,FCGround,N/A-FCGround,ASHRAETARP,NoSun,NoWind,0.50,0.50,0.50,0.50,4
HeatTransfer Surface,BASEMENT_WALL_NORTH,Wall,,CTF - ConductionTransferFunction,BASEMENT_WALL_NORTH_CFACTOR,0.419,0.394,,139.09,139.09,139.09,0.00,90.00,57.03,2.44,0.00,FCGround,N/A-FCGround,ASHRAETARP,NoSun,NoWind,0.00,0.50,0.50,0.50,4
HeatTransfer Surface,BASEMENT_WALL_SOUTH,Wall,,CTF - ConductionTransferFunction,BASEMENT_WALL_SOUTH_CFACTOR,0.419,0.394,,139.09,139.09,139.09,180.00,90.00,57.03,2.44,0.00,FCGround,N/A-FCGround,ASHRAETARP,NoSun,NoWind,0.00,0.50,0.50,0.50,4
HeatTransfer Surface,BASEMENT_WALL_WEST,Wall,,CTF - ConductionTransferFunction,INT_WALL,6.299,3.242,,118.87,118.87,118.87,270.00,90.00,48.74,2.44,0.00,DATACENTER_BASEMENT_ZN_6_WALL_EAST,Other/Same Surface Int Conv,ASHRAETARP,NoSun,NoWind,0.00,0.50,0.50,0.50,4
HeatTransfer Surface,BASEMENT_FLOOR,Floor,,CTF - ConductionTransferFunction,EXT_SLAB_8IN_WITH_CARPET,3.285,1.827,,2779.43,2779.43,2779.43,0.00,180.00,57.03,48.74,0.00,BASEMENT_FLOOR,Other/Same Surface Int Conv,ASHRAETARP,NoSun,NoWind,0.00,0.00,1.00,0.00,4
HeatTransfer Surface,CORE_BOT_ZN_5_FLOOR-PPAUTOCREATEOTHER,Roof,,CTF - ConductionTransferFunction,INT_SLAB_CEILING,3.839,2.228,,2076.77,2076.77,2076.77,180.00,0.00,52.45,39.59,0.00,CORE_BOT_ZN_5_FLOOR,Other/Same Surface Int Conv,ASHRAETARP,NoSun,NoWind,0.00,1.00,0.00,1.00,4
[...]
HeatTransfer Surface,PERIMETER_MID_ZN_1_CEILING,Roof,,CTF - ConductionTransferFunction,DROPCEILING,4.488,2.432,,313.42,313.42,313.42,180.00,0.00,73.11,6.47,0.00,iz-PERIMETER_MID_ZN_1_CEILING,Other/Same Surface Int Conv,ASHRAETARP,NoSun,NoWind,0.00,1.00,0.00,1.00,4
HeatTransfer Surface,PERIMETER_MID_ZN_1_INTERNALMASS_1,Internal Mass,,CTF - ConductionTransferFunction,INTERIORFURNISHINGS,0.800,0.800,,626.84,626.84,626.84,0.00,90.00,626.84,1.00,0.00,PERIMETER_MID_ZN_1_INTERNALMASS_1,Other/Same Surface Int Conv,ASHRAETARP,NoSun,NoWind,0.00,0.50,1.00,0.00,0
Zone Surfaces,PERIMETER_MID_ZN_2,8
HeatTransfer Surface,CORE_MID_ZN_5_WALL_EAST-PPAUTOCREATEOTHER,Wall,,CTF - ConductionTransferFunction,INT_WALL,6.299,3.242,,108.64,108.64,108.64,270.00,90.00,39.59,2.74,0.00,CORE_MID_ZN_5_WALL_EAST,Other/Same Surface Int Conv,ASHRAETARP,NoSun,NoWind,0.50,0.50,0.50,0.50,4
HeatTransfer Surface,PERIMETER_MID_ZN_1_WALL_EAST-PPAUTOCREATEOTHER,Wall,,CTF - ConductionTransferFunction,INT_WALL,6.299,3.242,,17.75,17.75,17.75,225.00,90.00,6.47,2.74,0.00,PERIMETER_MID_ZN_1_WALL_EAST,Other/Same Surface Int Conv,ASHRAETARP,NoSun,NoWind,0.50,0.50,0.50,0.50,4
HeatTransfer Surface,PERIMETER_MID_ZN_2_WALL_EAST,Wall,,CTF - ConductionTransferFunction,NONRES_EXT_WALL,0.553,0.511,,56.47,133.74,56.47,90.00,90.00,48.74,2.74,0.00,ExternalEnvironment,ASHRAETARP,ASHRAETARP,SunExposed,WindExposed,0.50,0.50,0.50,0.50,4
HeatTransfer Surface,PERIMETER_MID_ZN_2_WALL_EAST_WINDOW,Window,PERIMETER_MID_ZN_2_WALL_EAST,Window5 Detailed Fenestration,WINDOW_U_0.36_SHGC_0.38,N/A,2.045,No,77.26,77.26,77.26,90.00,90.00,48.74,1.59,0.00,ExternalEnvironment,ASHRAETARP,ASHRAETARP,SunExposed,WindExposed,0.50,0.50,0.50,0.50,4
HeatTransfer Surface,PERIMETER_MID_ZN_2_WALL_NORTH,Wall,,CTF - ConductionTransferFunction,INT_WALL,6.299,3.242,,17.75,17.75,17.75,315.00,90.00,6.47,2.74,0.00,PERIMETER_MID_ZN_2_WALL_NORTH-PPAUTOCREATEOTHER,Other/Same Surface Int Conv,ASHRAETARP,NoSun,NoWind,0.50,0.50,0.50,0.50,4
HeatTransfer Surface,PERIMETER_MID_ZN_2_FLOOR,Floor,,CTF - ConductionTransferFunction,INT_SLAB_FLOOR,3.839,1.986,,201.98,201.98,201.98,45.00,180.00,6.47,48.74,0.00,PERIMETER_MID_ZN_2_FLOOR,Other/Same Surface Int Conv,ASHRAETARP,NoSun,NoWind,1.00,0.00,1.00,0.00,4
HeatTransfer Surface,PERIMETER_MID_ZN_2_CEILING,Roof,,CTF - ConductionTransferFunction,DROPCEILING,4.488,2.432,,201.98,201.98,201.98,225.00,0.00,6.47,39.59,0.00,iz-PERIMETER_MID_ZN_2_CEILING,Other/Same Surface Int Conv,ASHRAETARP,NoSun,NoWind,0.00,1.00,0.00,1.00,4
HeatTransfer Surface,PERIMETER_MID_ZN_2_INTERNALMASS_1,Internal Mass,,CTF - ConductionTransferFunction,INTERIORFURNISHINGS,0.800,0.800,,403.95,403.95,403.95,0.00,90.00,403.95,1.00,0.00,PERIMETER_MID_ZN_2_INTERNALMASS_1,Other/Same Surface Int Conv,ASHRAETARP,NoSun,NoWind,0.00,0.50,1.00,0.00,0
Zone Surfaces,PERIMETER_MID_ZN_3,9
HeatTransfer Surface,CORE_MID_ZN_5_WALL_NORTH-PPAUTOCREATEOTHER,Wall,,CTF - ConductionTransferFunction,INT_WALL,6.299,3.242,,173.00,173.00,173.00,180.00,90.00,63.05,2.74,0.00,CORE_MID_ZN_5_WALL_NORTH,Other/Same Surface Int Conv,ASHRAETARP,NoSun,NoWind,0.50,0.50,0.50,0.50,4
HeatTransfer Surface,DATACENTER_MID_ZN_6_WALL_NORTH-PPAUTOCREATEOTHER,Wall,,CTF - ConductionTransferFunction,INT_WALL,6.299,3.242,,2.51,2.51,2.51,180.00,90.00,0.91,2.74,0.00,DATACENTER_MID_ZN_6_WALL_NORTH,Other/Same Surface Int Conv,ASHRAETARP,NoSun,NoWind,0.00,0.50,0.50,0.50,4
HeatTransfer Surface,PERIMETER_MID_ZN_2_WALL_NORTH-PPAUTOCREATEOTHER,Wall,,CTF - ConductionTransferFunction,INT_WALL,6.299,3.242,,17.75,17.75,17.75,135.00,90.00,6.47,2.74,0.00,PERIMETER_MID_ZN_2_WALL_NORTH,Other/Same Surface Int Conv,ASHRAETARP,NoSun,NoWind,0.50,0.50,0.50,0.50,4
HeatTransfer Surface,PERIMETER_MID_ZN_3_WALL_NORTH,Wall,,CTF - ConductionTransferFunction,NONRES_EXT_WALL,0.553,0.511,,84.71,200.61,84.71,0.00,90.00,73.11,2.74,0.00,ExternalEnvironment,ASHRAETARP,ASHRAETARP,SunExposed,WindExposed,0.50,0.50,0.50,0.50,4
HeatTransfer Surface,PERIMETER_MID_ZN_3_WALL_NORTH_WINDOW,Window,PERIMETER_MID_ZN_3_WALL_NORTH,Window5 Detailed Fenestration,WINDOW_U_0.36_SHGC_0.38,N/A,2.045,No,115.90,115.90,115.90,0.00,90.00,73.11,1.59,0.00,ExternalEnvironment,ASHRAETARP,ASHRAETARP,SunExposed,WindExposed,0.50,0.50,0.50,0.50,4
HeatTransfer Surface,PERIMETER_MID_ZN_3_WALL_WEST,Wall,,CTF - ConductionTransferFunction,INT_WALL,6.299,3.242,,17.75,17.75,17.75,225.00,90.00,6.47,2.74,0.00,PERIMETER_MID_ZN_3_WALL_WEST-PPAUTOCREATEOTHER,Other/Same Surface Int Conv,ASHRAETARP,NoSun,NoWind,0.50,0.50,0.50,0.50,4
HeatTransfer Surface,PERIMETER_MID_ZN_3_FLOOR,Floor,,CTF - ConductionTransferFunction,INT_SLAB_FLOOR,3.839,1.986,,313.41,313.41,313.41,0.00,180.00,63.96,6.47,0.00,PERIMETER_MID_ZN_3_FLOOR,Other/Same Surface Int Conv,ASHRAETARP,NoSun,NoWind,1.00,0.00,1.00,0.00,4
HeatTransfer Surface,PERIMETER_MID_ZN_3_CEILING,Roof,,CTF - ConductionTransferFunction,DROPCEILING,4.488,2.432,,313.41,313.41,313.41,180.00,0.00,63.96,6.47,0.00,iz-PERIMETER_MID_ZN_3_CEILING,Other/Same Surface Int Conv,ASHRAETARP,NoSun,NoWind,0.00,1.00,0.00,1.00,4
HeatTransfer Surface,PERIMETER_MID_ZN_3_INTERNALMASS_1,Internal Mass,,CTF - ConductionTransferFunction,INTERIORFURNISHINGS,0.800,0.800,,626.83,626.83,626.83,0.00,90.00,626.83,1.00,0.00,PERIMETER_MID_ZN_3_INTERNALMASS_1,Other/Same Surface Int Conv,ASHRAETARP,NoSun,NoWind,0.00,0.50,1.00,0.00,0
Zone Surfaces,PERIMETER_MID_ZN_4,8
HeatTransfer Surface,DATACENTER_MID_ZN_6_WALL_WEST-PPAUTOCREATEOTHER,Wall,,CTF - ConductionTransferFunction,INT_WALL,6.299,3.242,,108.64,108.64,108.64,90.00,90.00,39.59,2.74,0.00,DATACENTER_MID_ZN_6_WALL_WEST,Other/Same Surface Int Conv,ASHRAETARP,NoSun,NoWind,0.00,0.50,0.50,0.50,4
HeatTransfer Surface,PERIMETER_MID_ZN_3_WALL_WEST-PPAUTOCREATEOTHER,Wall,,CTF - ConductionTransferFunction,INT_WALL,6.299,3.242,,17.75,17.75,17.75,45.00,90.00,6.47,2.74,0.00,PERIMETER_MID_ZN_3_WALL_WEST,Other/Same Surface Int Conv,ASHRAETARP,NoSun,NoWind,0.50,0.50,0.50,0.50,4
HeatTransfer Surface,PERIMETER_MID_ZN_4_WALL_SOUTH,Wall,,CTF - ConductionTransferFunction,INT_WALL,6.299,3.242,,17.75,17.75,17.75,135.00,90.00,6.47,2.74,0.00,PERIMETER_MID_ZN_4_WALL_SOUTH-PPAUTOCREATEOTHER,Other/Same Surface Int Conv,ASHRAETARP,NoSun,NoWind,0.50,0.50,0.50,0.50,4
HeatTransfer Surface,PERIMETER_MID_ZN_4_WALL_WEST,Wall,,CTF - ConductionTransferFunction,NONRES_EXT_WALL,0.553,0.511,,56.47,133.74,56.47,270.00,90.00,48.74,2.74,0.00,ExternalEnvironment,ASHRAETARP,ASHRAETARP,SunExposed,WindExposed,0.50,0.50,0.50,0.50,4
HeatTransfer Surface,PERIMETER_MID_ZN_4_WALL_WEST_WINDOW,Window,PERIMETER_MID_ZN_4_WALL_WEST,Window5 Detailed Fenestration,WINDOW_U_0.36_SHGC_0.38,N/A,2.045,No,77.26,77.26,77.26,270.00,90.00,48.74,1.59,0.00,ExternalEnvironment,ASHRAETARP,ASHRAETARP,SunExposed,WindExposed,0.50,0.50,0.50,0.50,4
HeatTransfer Surface,PERIMETER_MID_ZN_4_FLOOR,Floor,,CTF - ConductionTransferFunction,INT_SLAB_FLOOR,3.839,1.986,,201.98,201.98,201.98,315.00,180.00,6.47,39.59,0.00,PERIMETER_MID_ZN_4_FLOOR,Other/Same Surface Int Conv,ASHRAETARP,NoSun,NoWind,1.00,0.00,1.00,0.00,4
HeatTransfer Surface,PERIMETER_MID_ZN_4_CEILING,Roof,,CTF - ConductionTransferFunction,DROPCEILING,4.488,2.432,,201.98,201.98,201.98,135.00,0.00,6.47,48.74,0.00,iz-PERIMETER_MID_ZN_4_CEILING,Other/Same Surface Int Conv,ASHRAETARP,NoSun,NoWind,0.00,1.00,0.00,1.00,4
HeatTransfer Surface,PERIMETER_MID_ZN_4_INTERNALMASS_1,Internal Mass,,CTF - ConductionTransferFunction,INTERIORFURNISHINGS,0.800,0.800,,403.95,403.95,403.95,0.00,90.00,403.95,1.00,0.00,PERIMETER_MID_ZN_4_INTERNALMASS_1,Other/Same Surface Int Conv,ASHRAETARP,NoSun,NoWind,0.00,0.50,1.00,0.00,0
Zone Surfaces,PERIMETER_TOP_ZN_1,9
HeatTransfer Surface,CORE_TOP_ZN_5_WALL_SOUTH-PPAUTOCREATEOTHER,Wall,,CTF - ConductionTransferFunction,INT_WALL,6.299,3.242,,173.00,173.00,173.00,0.00,90.00,63.05,2.74,0.00,CORE_TOP_ZN_5_WALL_SOUTH,Other/Same Surface Int Conv,ASHRAETARP,NoSun,NoWind,0.00,0.50,0.50,0.50,4
HeatTransfer Surface,DATACENTER_TOP_ZN_6_WALL_SOUTH-PPAUTOCREATEOTHER,Wall,,CTF - ConductionTransferFunction,INT_WALL,6.299,3.242,,2.51,2.51,2.51,0.00,90.00,0.91,2.74,0.00,DATACENTER_TOP_ZN_6_WALL_SOUTH,Other/Same Surface Int Conv,ASHRAETARP,NoSun,NoWind,0.00,0.50,0.50,0.50,4
HeatTransfer Surface,INT-PER3S-NE,Wall,,CTF - ConductionTransferFunction,INT_WALL,6.299,3.242,,17.75,17.75,17.75,45.00,90.00,6.47,2.74,0.00,INT-PER3S-NE-PPAUTOCREATEOTHER,Other/Same Surface Int Conv,ASHRAETARP,NoSun,NoWind,0.50,0.50,0.50,0.50,4
HeatTransfer Surface,PERIMETER_TOP_ZN_1_WALL_SOUTH,Wall,,CTF - ConductionTransferFunction,NONRES_EXT_WALL,0.553,0.511,,84.71,200.61,84.71,180.00,90.00,73.11,2.74,0.00,ExternalEnvironment,ASHRAETARP,ASHRAETARP,SunExposed,WindExposed,0.50,0.50,0.50,0.50,4
HeatTransfer Surface,PERIMETER_TOP_ZN_1_WALL_SOUTH_WINDOW,Window,PERIMETER_TOP_ZN_1_WALL_SOUTH,Window5 Detailed Fenestration,WINDOW_U_0.36_SHGC_0.38,N/A,2.045,No,115.90,115.90,115.90,180.00,90.00,73.11,1.59,0.00,ExternalEnvironment,ASHRAETARP,ASHRAETARP,SunExposed,WindExposed,0.50,0.50,0.50,0.50,4
HeatTransfer Surface,PERIMETER_TOP_ZN_4_WALL_SOUTH-PPAUTOCREATEOTHER,Wall,,CTF - ConductionTransferFunction,INT_WALL,6.299,3.242,,17.75,17.75,17.75,315.00,90.00,6.47,2.74,0.00,PERIMETER_TOP_ZN_4_WALL_SOUTH,Other/Same Surface Int Conv,ASHRAETARP,NoSun,NoWind,0.50,0.50,0.50,0.50,4
HeatTransfer Surface,PERIMETER_TOP_ZN_1_FLOOR,Floor,,CTF - ConductionTransferFunction,INT_SLAB_FLOOR,3.839,1.986,,313.42,313.42,313.42,0.00,180.00,73.11,6.47,0.00,PERIMETER_TOP_ZN_1_FLOOR,Other/Same Surface Int Conv,ASHRAETARP,NoSun,NoWind,1.00,0.00,1.00,0.00,4
HeatTransfer Surface,PERIMETER_TOP_ZN_1_CEILING,Roof,,CTF - ConductionTransferFunction,DROPCEILING,4.488,2.432,,313.42,313.42,313.42,180.00,0.00,73.11,6.47,0.00,iz-PERIMETER_TOP_ZN_1_CEILING,Other/Same Surface Int Conv,ASHRAETARP,NoSun,NoWind,0.00,1.00,0.00,1.00,4
HeatTransfer Surface,PERIMETER_TOP_ZN_1_INTERNALMASS_1,Internal Mass,,CTF - ConductionTransferFunction,INTERIORFURNISHINGS,0.800,0.800,,626.84,626.84,626.84,0.00,90.00,626.84,1.00,0.00,PERIMETER_TOP_ZN_1_INTERNALMASS_1,Other/Same Surface Int Conv,ASHRAETARP,NoSun,NoWind,0.00,0.50,1.00,0.00,0
Zone Surfaces,PERIMETER_TOP_ZN_2,8
HeatTransfer Surface,CORE_TOP_ZN_5_WALL_EAST-PPAUTOCREATEOTHER,Wall,,CTF - ConductionTransferFunction,INT_WALL,6.299,3.242,,108.64,108.64,108.64,270.00,90.00,39.59,2.74,0.00,CORE_TOP_ZN_5_WALL_EAST,Other/Same Surface Int Conv,ASHRAETARP,NoSun,NoWind,0.50,0.50,0.50,0.50,4
HeatTransfer Surface,INT-PER3S-NE-PPAUTOCREATEOTHER,Wall,,CTF - ConductionTransferFunction,INT_WALL,6.299,3.242,,17.75,17.75,17.75,225.00,90.00,6.47,2.74,0.00,INT-PER3S-NE,Other/Same Surface Int Conv,ASHRAETARP,NoSun,NoWind,0.50,0.50,0.50,0.50,4
HeatTransfer Surface,PERIMETER_TOP_ZN_2_WALL_EAST,Wall,,CTF - ConductionTransferFunction,NONRES_EXT_WALL,0.553,0.511,,56.47,133.74,56.47,90.00,90.00,48.74,2.74,0.00,ExternalEnvironment,ASHRAETARP,ASHRAETARP,SunExposed,WindExposed,0.50,0.50,0.50,0.50,4
HeatTransfer Surface,PERIMETER_TOP_ZN_2_WALL_EAST_WINDOW,Window,PERIMETER_TOP_ZN_2_WALL_EAST,Window5 Detailed Fenestration,WINDOW_U_0.36_SHGC_0.38,N/A,2.045,No,77.26,77.26,77.26,90.00,90.00,48.74,1.59,0.00,ExternalEnvironment,ASHRAETARP,ASHRAETARP,SunExposed,WindExposed,0.50,0.50,0.50,0.50,4
HeatTransfer Surface,PERIMETER_TOP_ZN_2_WALL_NORTH,Wall,,CTF - ConductionTransferFunction,INT_WALL,6.299,3.242,,17.75,17.75,17.75,315.00,90.00,6.47,2.74,0.00,PERIMETER_TOP_ZN_2_WALL_NORTH-PPAUTOCREATEOTHER,Other/Same Surface Int Conv,ASHRAETARP,NoSun,NoWind,0.50,0.50,0.50,0.50,4
HeatTransfer Surface,PERIMETER_TOP_ZN_2_FLOOR,Floor,,CTF - ConductionTransferFunction,INT_SLAB_FLOOR,3.839,1.986,,201.98,201.98,201.98,45.00,180.00,6.47,48.74,0.00,PERIMETER_TOP_ZN_2_FLOOR,Other/Same Surface Int Conv,ASHRAETARP,NoSun,NoWind,1.00,0.00,1.00,0.00,4
HeatTransfer Surface,PERIMETER_TOP_ZN_2_CEILING,Roof,,CTF - ConductionTransferFunction,DROPCEILING,4.488,2.432,,201.98,201.98,201.98,225.00,0.00,6.47,39.59,0.00,iz-PERIMETER_TOP_ZN_2_CEILING,Other/Same Surface Int Conv,ASHRAETARP,NoSun,NoWind,0.00,1.00,0.00,1.00,4
HeatTransfer Surface,PERIMETER_TOP_ZN_2_INTERNALMASS_1,Internal Mass,,CTF - ConductionTransferFunction,INTERIORFURNISHINGS,0.800,0.800,,403.95,403.95,403.95,0.00,90.00,403.95,1.00,0.00,PERIMETER_TOP_ZN_2_INTERNALMASS_1,Other/Same Surface Int Conv,ASHRAETARP,NoSun,NoWind,0.00,0.50,1.00,0.00,0
Zone Surfaces,PERIMETER_TOP_ZN_3,9
HeatTransfer Surface,CORE_TOP_ZN_5_WALL_NORTH-PPAUTOCREATEOTHER,Wall,,CTF - ConductionTransferFunction,INT_WALL,6.299,3.242,,173.00,173.00,173.00,180.00,90.00,63.05,2.74,0.00,CORE_TOP_ZN_5_WALL_NORTH,Other/Same Surface Int Conv,ASHRAETARP,NoSun,NoWind,0.50,0.50,0.50,0.50,4
HeatTransfer Surface,DATACENTER_TOP_ZN_6_WALL_NORTH-PPAUTOCREATEOTHER,Wall,,CTF - ConductionTransferFunction,INT_WALL,6.299,3.242,,2.51,2.51,2.51,180.00,90.00,0.91,2.74,0.00,DATACENTER_TOP_ZN_6_WALL_NORTH,Other/Same Surface Int Conv,ASHRAETARP,NoSun,NoWind,0.00,0.50,0.50,0.50,4
HeatTransfer Surface,PERIMETER_TOP_ZN_2_WALL_NORTH-PPAUTOCREATEOTHER,Wall,,CTF - ConductionTransferFunction,INT_WALL,6.299,3.242,,17.75,17.75,17.75,135.00,90.00,6.47,2.74,0.00,PERIMETER_TOP_ZN_2_WALL_NORTH,Other/Same Surface Int Conv,ASHRAETARP,NoSun,NoWind,0.50,0.50,0.50,0.50,4
HeatTransfer Surface,PERIMETER_TOP_ZN_3_WALL_NORTH,Wall,,CTF - ConductionTransferFunction,NONRES_EXT_WALL,0.553,0.511,,84.71,200.61,84.71,0.00,90.00,73.11,2.74,0.00,ExternalEnvironment,ASHRAETARP,ASHRAETARP,SunExposed,WindExposed,0.50,0.50,0.50,0.50,4
HeatTransfer Surface,PERIMETER_TOP_ZN_3_WALL_NORTH_WINDOW,Window,PERIMETER_TOP_ZN_3_WALL_NORTH,Window5 Detailed Fenestration,WINDOW_U_0.36_SHGC_0.38,N/A,2.045,No,115.90,115.90,115.90,0.00,90.00,73.11,1.59,0.00,ExternalEnvironment,ASHRAETARP,ASHRAETARP,SunExposed,WindExposed,0.50,0.50,0.50,0.50,4
HeatTransfer Surface,PERIMETER_TOP_ZN_3_WALL_WEST,Wall,,CTF - ConductionTransferFunction,INT_WALL,6.299,3.242,,17.75,17.75,17.75,225.00,90.00,6.47,2.74,0.00,PERIMETER_TOP_ZN_3_WALL_WEST-PPAUTOCREATEOTHER,Other/Same Surface Int Conv,ASHRAETARP,NoSun,NoWind,0.50,0.50,0.50,0.50,4
HeatTransfer Surface,PERIMETER_TOP_ZN_3_FLOOR,Floor,,CTF - ConductionTransferFunction,INT_SLAB_FLOOR,3.839,1.986,,313.41,313.41,313.41,0.00,180.00,63.96,6.47,0.00,PERIMETER_TOP_ZN_3_FLOOR,Other/Same Surface Int Conv,ASHRAETARP,NoSun,NoWind,1.00,0.00,1.00,0.00,4
HeatTransfer Surface,PERIMETER_TOP_ZN_3_CEILING,Roof,,CTF - ConductionTransferFunction,DROPCEILING,4.488,2.432,,313.41,313.41,313.41,180.00,0.00,63.96,6.47,0.00,iz-PERIMETER_TOP_ZN_3_CEILING,Other/Same Surface Int Conv,ASHRAETARP,NoSun,NoWind,0.00,1.00,0.00,1.00,4
HeatTransfer Surface,PERIMETER_TOP_ZN_3_INTERNALMASS_1,Internal Mass,,CTF - ConductionTransferFunction,INTERIORFURNISHINGS,0.800,0.800,,626.83,626.83,626.83,0.00,90.00,626.83,1.00,0.00,PERIMETER_TOP_ZN_3_INTERNALMASS_1,Other/Same Surface Int Conv,ASHRAETARP,NoSun,NoWind,0.00,0.50,1.00,0.00,0
Zone Surfaces,PERIMETER_TOP_ZN_4,8
HeatTransfer Surface,DATACENTER_TOP_ZN_6_WALL_WEST-PPAUTOCREATEOTHER,Wall,,CTF - ConductionTransferFunction,INT_WALL,6.299,3.242,,108.64,108.64,108.64,90.00,90.00,39.59,2.74,0.00,DATACENTER_TOP_ZN_6_WALL_WEST,Other/Same Surface Int Conv,ASHRAETARP,NoSun,NoWind,0.00,0.50,0.50,0.50,4
HeatTransfer Surface,PERIMETER_TOP_ZN_3_WALL_WEST-PPAUTOCREATEOTHER,Wall,,CTF - ConductionTransferFunction,INT_WALL,6.299,3.242,,17.75,17.75,17.75,45.00,90.00,6.47,2.74,0.00,PERIMETER_TOP_ZN_3_WALL_WEST,Other/Same Surface Int Conv,ASHRAETARP,NoSun,NoWind,0.50,0.50,0.50,0.50,4
HeatTransfer Surface,PERIMETER_TOP_ZN_4_WALL_SOUTH,Wall,,CTF - ConductionTransferFunction,INT_WALL,6.299,3.242,,17.75,17.75,17.75,135.00,90.00,6.47,2.74,0.00,PERIMETER_TOP_ZN_4_WALL_SOUTH-PPAUTOCREATEOTHER,Other/Same Surface Int Conv,ASHRAETARP,NoSun,NoWind,0.50,0.50,0.50,0.50,4
HeatTransfer Surface,PERIMETER_TOP_ZN_4_WALL_WEST,Wall,,CTF - ConductionTransferFunction,NONRES_EXT_WALL,0.553,0.511,,56.47,133.74,56.47,270.00,90.00,48.74,2.74,0.00,ExternalEnvironment,ASHRAETARP,ASHRAETARP,SunExposed,WindExposed,0.50,0.50,0.50,0.50,4
HeatTransfer Surface,PERIMETER_TOP_ZN_4_WALL_WEST_WINDOW,Window,PERIMETER_TOP_ZN_4_WALL_WEST,Window5 Detailed Fenestration,WINDOW_U_0.36_SHGC_0.38,N/A,2.045,No,77.26,77.26,77.26,270.00,90.00,48.74,1.59,0.00,ExternalEnvironment,ASHRAETARP,ASHRAETARP,SunExposed,WindExposed,0.50,0.50,0.50,0.50,4
HeatTransfer Surface,PERIMETER_TOP_ZN_4_FLOOR,Floor,,CTF - ConductionTransferFunction,INT_SLAB_FLOOR,3.839,1.986,,201.98,201.98,201.98,315.00,180.00,6.47,39.59,0.00,PERIMETER_TOP_ZN_4_FLOOR,Other/Same Surface Int Conv,ASHRAETARP,NoSun,NoWind,1.00,0.00,1.00,0.00,4
HeatTransfer Surface,PERIMETER_TOP_ZN_4_CEILING,Roof,,CTF - ConductionTransferFunction,DROPCEILING,4.488,2.432,,201.98,201.98,201.98,135.00,0.00,6.47,48.74,0.00,iz-PERIMETER_TOP_ZN_4_CEILING,Other/Same Surface Int Conv,ASHRAETARP,NoSun,NoWind,0.00,1.00,0.00,1.00,4
HeatTransfer Surface,PERIMETER_TOP_ZN_4_INTERNALMASS_1,Internal Mass,,CTF - ConductionTransferFunction,INTERIORFURNISHINGS,0.800,0.800,,403.95,403.95,403.95,0.00,90.00,403.95,1.00,0.00,PERIMETER_TOP_ZN_4_INTERNALMASS_1,Other/Same Surface Int Conv,ASHRAETARP,NoSun,NoWind,0.00,0.50,1.00,0.00,0
Zone Surfaces,TOPFLOOR_PLENUM,11
HeatTransfer Surface,TOPFLOOR_PLENUM_WALL_EAST,Wall,,CTF - ConductionTransferFunction,NONRES_EXT_WALL,0.553,0.511,,59.42,59.42,59.42,90.00,90.00,48.74,1.22,0.00,ExternalEnvironment,ASHRAETARP,ASHRAETARP,SunExposed,WindExposed,0.50,0.50,0.50,0.50,4
HeatTransfer Surface,TOPFLOOR_PLENUM_WALL_NORTH,Wall,,CTF - ConductionTransferFunction,NONRES_EXT_WALL,0.553,0.511,,89.13,89.13,89.13,180.00,90.00,73.11,1.22,0.00,ExternalEnvironment,ASHRAETARP,ASHRAETARP,SunExposed,WindExposed,0.50,0.50,0.50,0.50,4
HeatTransfer Surface,TOPFLOOR_PLENUM_WALL_SOUTH,Wall,,CTF - ConductionTransferFunction,NONRES_EXT_WALL,0.553,0.511,,89.13,89.13,89.13,0.00,90.00,73.11,1.22,0.00,ExternalEnvironment,ASHRAETARP,ASHRAETARP,SunExposed,WindExposed,0.50,0.50,0.50,0.50,4
HeatTransfer Surface,TOPFLOOR_PLENUM_WALL_WEST,Wall,,CTF - ConductionTransferFunction,NONRES_EXT_WALL,0.553,0.511,,59.42,59.42,59.42,270.00,90.00,48.74,1.22,0.00,ExternalEnvironment,ASHRAETARP,ASHRAETARP,SunExposed,WindExposed,0.50,0.50,0.50,0.50,4
HeatTransfer Surface,iz-CORE_TOP_ZN_5_CEILING,Floor,,CTF - ConductionTransferFunction,DROPCEILING,4.488,2.147,,2496.12,2496.12,2496.12,0.00,180.00,63.05,39.59,0.00,CORE_TOP_ZN_5_CEILING,Other/Same Surface Int Conv,ASHRAETARP,NoSun,NoWind,1.00,0.00,1.00,0.00,4
HeatTransfer Surface,iz-DATACENTER_TOP_ZN_6_CEILING,Floor,,CTF - ConductionTransferFunction,DROPCEILING,4.488,2.147,,36.20,36.20,36.20,0.00,180.00,0.91,39.59,0.00,DATACENTER_TOP_ZN_6_CEILING,Other/Same Surface Int Conv,ASHRAETARP,NoSun,NoWind,1.00,0.00,1.00,0.00,4
HeatTransfer Surface,iz-PERIMETER_TOP_ZN_1_CEILING,Floor,,CTF - ConductionTransferFunction,DROPCEILING,4.488,2.147,,313.42,313.42,313.42,0.00,180.00,73.11,6.47,0.00,PERIMETER_TOP_ZN_1_CEILING,Other/Same Surface Int Conv,ASHRAETARP,NoSun,NoWind,1.00,0.00,1.00,0.00,4
HeatTransfer Surface,iz-PERIMETER_TOP_ZN_2_CEILING,Floor,,CTF - ConductionTransferFunction,DROPCEILING,4.488,2.147,,201.98,201.98,201.98,45.00,180.00,6.47,48.74,0.00,PERIMETER_TOP_ZN_2_CEILING,Other/Same Surface Int Conv,ASHRAETARP,NoSun,NoWind,1.00,0.00,1.00,0.00,4
HeatTransfer Surface,iz-PERIMETER_TOP_ZN_3_CEILING,Floor,,CTF - ConductionTransferFunction,DROPCEILING,4.488,2.147,,313.41,313.41,313.41,0.00,180.00,63.96,6.47,0.00,PERIMETER_TOP_ZN_3_CEILING,Other/Same Surface Int Conv,ASHRAETARP,NoSun,NoWind,1.00,0.00,1.00,0.00,4
HeatTransfer Surface,iz-PERIMETER_TOP_ZN_4_CEILING,Floor,,CTF - ConductionTransferFunction,DROPCEILING,4.488,2.147,,201.98,201.98,201.98,315.00,180.00,6.47,39.59,0.00,PERIMETER_TOP_ZN_4_CEILING,Other/Same Surface Int Conv,ASHRAETARP,NoSun,NoWind,1.00,0.00,1.00,0.00,4
HeatTransfer Surface,BUILDING_ROOF,Roof,,CTF - ConductionTransferFunction,NONRES_ROOF,0.186,0.180,,3563.11,3563.11,3563.11,180.00,0.00,73.11,48.74,0.00,ExternalEnvironment,ASHRAETARP,ASHRAETARP,SunExposed,WindExposed,0.00,1.00,0.00,1.00,4
